<?xml version="1.0"?>
<!-- generated on Tue Mar 26 14:51:59 2013 by SUMO duarouter Version 0.16.0
<?xml version="1.0" encoding="UTF-8"?>

<configuration xmlns:xsi="http://www.w3.org/2001/XMLSchema-instance" xsi:noNamespaceSchemaLocation="http://sumo.sf.net/xsd/duarouterConfiguration.xsd">

    <input>
        <net-file value="network.net.xml"/>
        <trip-files value="trips.trips.xml"/>
    </input>

    <output>
        <output-file value="20_16.rou.xml"/>
    </output>

</configuration>
-->
<routes xmlns:xsi="http://www.w3.org/2001/XMLSchema-instance" xsi:nonamespaceschemalocation="http://sumo.sf.net/xsd/routes_file.xsd">
 <vehicle depart="0.00" id="t0">
  <route edges="3/6to4/6 4/6to4/7 4/7to5/7">
  </route>
 </vehicle>
 <vehicle depart="0.00" id="t1">
  <route edges="4/2to4/1 4/1to3/1 3/1to3/2 3/2to3/3 3/3to3/4 3/4to4/4 4/4to5/4">
  </route>
 </vehicle>
 <vehicle depart="0.00" id="t2">
  <route edges="4/1to4/2 4/2to4/3 4/3to4/4 4/4to5/4 5/4to6/4 6/4to7/4">
  </route>
 </vehicle>
 <vehicle depart="0.00" id="t3">
  <route edges="2/7to1/7 1/7to1/6 1/6to1/5 1/5to1/4 1/4to1/3 1/3to1/2 1/2to2/2 2/2to3/2 3/2to4/2 4/2to5/2 5/2to6/2 6/2to7/2">
  </route>
 </vehicle>
 <vehicle depart="0.00" id="t4">
  <route edges="0/1to0/2 0/2to1/2 1/2to1/1 1/1to2/1 2/1to3/1 3/1to3/0">
  </route>
 </vehicle>
 <vehicle depart="0.00" id="t5">
  <route edges="3/4to3/3 3/3to2/3 2/3to1/3 1/3to1/4 1/4to1/5 1/5to1/6 1/6to0/6">
  </route>
 </vehicle>
 <vehicle depart="0.00" id="t6">
  <route edges="7/3to6/3 6/3to5/3 5/3to4/3 4/3to3/3 3/3to3/2 3/2to2/2">
  </route>
 </vehicle>
 <vehicle depart="0.00" id="t7">
  <route edges="7/7to7/6 7/6to7/5 7/5to7/4 7/4to8/4 8/4to9/4 9/4to9/3">
  </route>
 </vehicle>
 <vehicle depart="0.00" id="t8">
  <route edges="2/6to2/7 2/7to3/7 3/7to3/6 3/6to4/6 4/6to5/6 5/6to6/6 6/6to7/6 7/6to8/6 8/6to8/7 8/7to7/7">
  </route>
 </vehicle>
 <vehicle depart="0.00" id="t9">
  <route edges="7/8to8/8 8/8to8/7 8/7to7/7 7/7to6/7 6/7to6/6 6/6to6/5 6/5to7/5">
  </route>
 </vehicle>
 <vehicle depart="0.00" id="t10">
  <route edges="0/3to0/4 0/4to0/5 0/5to1/5 1/5to2/5 2/5to3/5 3/5to4/5 4/5to5/5">
  </route>
 </vehicle>
 <vehicle depart="0.00" id="t11">
  <route edges="6/2to5/2 5/2to4/2 4/2to3/2 3/2to3/1 3/1to3/0 3/0to4/0">
  </route>
 </vehicle>
 <vehicle depart="0.00" id="t12">
  <route edges="2/3to3/3 3/3to3/2 3/2to2/2">
  </route>
 </vehicle>
 <vehicle depart="0.00" id="t13">
  <route edges="2/6to3/6 3/6to4/6 4/6to5/6 5/6to6/6 6/6to7/6 7/6to7/7 7/7to6/7">
  </route>
 </vehicle>
 <vehicle depart="0.00" id="t14">
  <route edges="3/5to3/6 3/6to4/6 4/6to4/5 4/5to4/4 4/4to4/3 4/3to4/2 4/2to5/2">
  </route>
 </vehicle>
 <vehicle depart="0.00" id="t15">
  <route edges="6/3to6/4 6/4to7/4 7/4to7/3 7/3to8/3 8/3to9/3 9/3to9/2">
  </route>
 </vehicle>
 <vehicle depart="0.00" id="t16">
  <route edges="3/0to3/1 3/1to2/1 2/1to1/1 1/1to0/1 0/1to0/2 0/2to0/3 0/3to0/4 0/4to0/5 0/5to0/6">
  </route>
 </vehicle>
 <vehicle depart="0.00" id="t17">
  <route edges="9/6to9/5 9/5to9/4 9/4to9/3 9/3to9/2 9/2to9/1 9/1to8/1 8/1to8/2">
  </route>
 </vehicle>
 <vehicle depart="0.00" id="t18">
  <route edges="7/7to7/6 7/6to6/6 6/6to5/6 5/6to5/5 5/5to5/4 5/4to5/3 5/3to5/2 5/2to5/1">
  </route>
 </vehicle>
 <vehicle depart="0.00" id="t19">
  <route edges="2/4to3/4 3/4to3/5 3/5to2/5 2/5to1/5 1/5to1/6 1/6to1/7 1/7to0/7">
  </route>
 </vehicle>
</routes>
