<?xml version="1.0"?>
<!-- generated on Tue Mar 26 14:51:53 2013 by SUMO duarouter Version 0.16.0
<?xml version="1.0" encoding="UTF-8"?>

<configuration xmlns:xsi="http://www.w3.org/2001/XMLSchema-instance" xsi:noNamespaceSchemaLocation="http://sumo.sf.net/xsd/duarouterConfiguration.xsd">

    <input>
        <net-file value="network.net.xml"/>
        <trip-files value="trips.trips.xml"/>
    </input>

    <output>
        <output-file value="20_4.rou.xml"/>
    </output>

</configuration>
-->
<routes xmlns:xsi="http://www.w3.org/2001/XMLSchema-instance" xsi:nonamespaceschemalocation="http://sumo.sf.net/xsd/routes_file.xsd">
 <vehicle depart="0.00" id="t0">
  <route edges="2/4to3/4 3/4to3/3 3/3to2/3 2/3to2/2 2/2to1/2 1/2to1/3">
  </route>
 </vehicle>
 <vehicle depart="0.00" id="t1">
  <route edges="4/0to3/0 3/0to2/0 2/0to1/0 1/0to1/1 1/1to1/2 1/2to1/3 1/3to1/4 1/4to1/5 1/5to1/6 1/6to1/7 1/7to0/7">
  </route>
 </vehicle>
 <vehicle depart="0.00" id="t2">
  <route edges="0/8to0/7 0/7to0/6 0/6to0/5 0/5to0/4 0/4to0/3 0/3to0/2 0/2to0/1 0/1to1/1 1/1to1/0 1/0to2/0 2/0to3/0 3/0to4/0 4/0to5/0">
  </route>
 </vehicle>
 <vehicle depart="0.00" id="t3">
  <route edges="8/9to8/8 8/8to7/8 7/8to7/7">
  </route>
 </vehicle>
 <vehicle depart="0.00" id="t4">
  <route edges="7/5to6/5 6/5to5/5 5/5to4/5 4/5to3/5 3/5to3/4 3/4to3/3 3/3to2/3 2/3to2/4">
  </route>
 </vehicle>
 <vehicle depart="0.00" id="t5">
  <route edges="5/3to5/4 5/4to4/4 4/4to3/4 3/4to2/4 2/4to2/5 2/5to2/6 2/6to2/7 2/7to2/8 2/8to2/9">
  </route>
 </vehicle>
 <vehicle depart="0.00" id="t6">
  <route edges="1/8to2/8 2/8to2/7 2/7to1/7 1/7to1/6 1/6to1/5 1/5to1/4 1/4to1/3 1/3to1/2 1/2to2/2">
  </route>
 </vehicle>
 <vehicle depart="0.00" id="t7">
  <route edges="2/3to1/3 1/3to1/2 1/2to1/1 1/1to1/0 1/0to2/0 2/0to3/0 3/0to4/0 4/0to5/0 5/0to6/0 6/0to7/0 7/0to8/0 8/0to9/0 9/0to9/1">
  </route>
 </vehicle>
 <vehicle depart="0.00" id="t8">
  <route edges="8/1to8/0 8/0to7/0 7/0to7/1 7/1to7/2 7/2to7/3 7/3to7/4 7/4to7/5 7/5to7/6 7/6to7/7 7/7to7/8 7/8to8/8">
  </route>
 </vehicle>
 <vehicle depart="0.00" id="t9">
  <route edges="7/8to7/7 7/7to6/7 6/7to5/7 5/7to4/7 4/7to3/7 3/7to2/7 2/7to2/6 2/6to2/5 2/5to2/4 2/4to2/3 2/3to2/2 2/2to2/1 2/1to1/1">
  </route>
 </vehicle>
 <vehicle depart="0.00" id="t10">
  <route edges="3/2to2/2 2/2to2/1 2/1to3/1 3/1to4/1 4/1to5/1 5/1to6/1 6/1to6/2 6/2to5/2">
  </route>
 </vehicle>
 <vehicle depart="0.00" id="t11">
  <route edges="7/2to6/2 6/2to6/3 6/3to7/3 7/3to8/3 8/3to8/4">
  </route>
 </vehicle>
 <vehicle depart="0.00" id="t12">
  <route edges="8/5to9/5 9/5to9/4 9/4to8/4 8/4to7/4 7/4to6/4 6/4to5/4 5/4to4/4 4/4to3/4 3/4to2/4 2/4to1/4 1/4to1/3 1/3to1/2 1/2to1/1 1/1to0/1">
  </route>
 </vehicle>
 <vehicle depart="0.00" id="t13">
  <route edges="6/0to5/0 5/0to5/1 5/1to5/2 5/2to5/3 5/3to5/4 5/4to5/5 5/5to6/5 6/5to6/6 6/6to5/6">
  </route>
 </vehicle>
 <vehicle depart="0.00" id="t14">
  <route edges="5/0to6/0 6/0to6/1 6/1to5/1 5/1to4/1 4/1to3/1 3/1to2/1 2/1to2/2 2/2to2/3 2/3to2/4 2/4to2/5 2/5to2/6 2/6to2/7 2/7to2/8 2/8to2/9 2/9to1/9 1/9to1/8">
  </route>
 </vehicle>
 <vehicle depart="0.00" id="t15">
  <route edges="4/7to4/6 4/6to3/6 3/6to2/6 2/6to1/6 1/6to1/5 1/5to1/4 1/4to1/3 1/3to1/2 1/2to1/1 1/1to1/0">
  </route>
 </vehicle>
 <vehicle depart="0.00" id="t16">
  <route edges="9/1to9/2 9/2to8/2 8/2to8/3 8/3to8/4 8/4to8/5">
  </route>
 </vehicle>
 <vehicle depart="0.00" id="t17">
  <route edges="5/4to5/5 5/5to4/5 4/5to3/5 3/5to3/4 3/4to3/3 3/3to3/2 3/2to3/1 3/1to3/0">
  </route>
 </vehicle>
 <vehicle depart="0.00" id="t18">
  <route edges="8/8to8/9 8/9to7/9 7/9to6/9 6/9to5/9 5/9to5/8 5/8to5/7 5/7to5/6 5/6to6/6">
  </route>
 </vehicle>
 <vehicle depart="0.00" id="t19">
  <route edges="8/6to7/6 7/6to7/5 7/5to7/4 7/4to8/4 8/4to8/3 8/3to7/3">
  </route>
 </vehicle>
</routes>
