<?xml version="1.0" encoding="UTF-8"?>
<!-- generated on 2021-10-18 11:26:15.598402 by randomTrips.py v1_6_0+0003-190709904e
  options: -n .\grid_pedestrians.net.xml -b 0 -e 1 -p 0.01 <doubleminus>pedestrians -o grid_pedestrian.rou.xml
-->
<routes xmlns:xsi="http://www.w3.org/2001/XMLSchema-instance" xsi:noNamespaceSchemaLocation="http://sumo.dlr.de/xsd/routes_file.xsd">
    <person id="0" depart="3.00">
        <walk from="D5C5" to="C5D5"/>
    </person>
    <person id="1" depart="3.01">
        <walk from="B5A5" to="A5B5"/>
    </person>
    <person id="2" depart="3.02">
        <walk from="A5B5" to="B5A5"/>
    </person>
    <person id="3" depart="3.03">
        <walk from="B5A5" to="A5B5"/>
    </person>
    <person id="4" depart="3.04">
        <walk from="A5B5" to="B5A5"/>
    </person>
    <person id="5" depart="11.05">
        <walk from="C5B5" to="B5C5"/>
    </person>
    <person id="6" depart="11.06">
        <walk from="B5C5" to="C5B5"/>
    </person>
    <person id="7" depart="11.07">
        <walk from="C5B5" to="B5C5"/>
    </person>
    <person id="8" depart="11.08">
        <walk from="D5C5" to="C5D5"/>
    </person>
    <person id="9" depart="11.09">
        <walk from="C5D5" to="D5C5"/>
    </person>
    <person id="10" depart="11.10">
        <walk from="D5C5" to="C5D5"/>
    </person>
    <person id="11" depart="11.11">
        <walk from="C5D5" to="D5C5"/>
    </person>
    <person id="12" depart="18.12">
        <walk from="D5C5" to="C5D5"/>
    </person>
    <person id="13" depart="18.13">
        <walk from="C5D5" to="D5C5"/>
    </person>
    <person id="14" depart="18.14">
        <walk from="C5B5" to="B5C5"/>
    </person>
    
    <!--
    <person id="0" depart="0.00">
        <walk from="F3F2" to="D9C9"/>
    </person>
    <person id="1" depart="0.01">
        <walk from="E7E8" to="J7J8"/>
    </person>
    <person id="2" depart="0.02">
        <walk from="G2H2" to="B6B7"/>
    </person>
    <person id="3" depart="0.03">
        <walk from="D0D1" to="E9E8"/>
    </person>
    <person id="4" depart="0.04">
        <walk from="F7G7" to="D1D0"/>
    </person>
    <person id="5" depart="0.05">
        <walk from="H6G6" to="H8I8"/>
    </person>
    <person id="6" depart="0.06">
        <walk from="I6H6" to="C2D2"/>
    </person>
    <person id="7" depart="0.07">
        <walk from="E4D4" to="B3A3"/>
    </person>
    <person id="8" depart="0.08">
        <walk from="H0G0" to="H1G1"/>
    </person>
    <person id="9" depart="0.09">
        <walk from="J3J4" to="H7H6"/>
    </person>
    <person id="10" depart="0.10">
        <walk from="H6G6" to="J4J5"/>
    </person>
    <person id="11" depart="0.11">
        <walk from="D4D3" to="A7A8"/>
    </person>
    <person id="12" depart="0.12">
        <walk from="F2F1" to="H3I3"/>
    </person>
    <person id="13" depart="0.13">
        <walk from="B2A2" to="I2H2"/>
    </person>
    <person id="14" depart="0.14">
        <walk from="H3G3" to="I3J3"/>
    </person>
    <person id="15" depart="0.15">
        <walk from="B8A8" to="B8B7"/>
    </person>
    <person id="16" depart="0.16">
        <walk from="I1I0" to="E7F7"/>
    </person>
    <person id="17" depart="0.17">
        <walk from="H7H6" to="G4F4"/>
    </person>
    <person id="18" depart="0.18">
        <walk from="H7G7" to="F5F6"/>
    </person>
    <person id="19" depart="0.19">
        <walk from="A9A8" to="A8A7"/>
    </person>
    <person id="20" depart="0.20">
        <walk from="B8B7" to="I8J8"/>
    </person>
    <person id="21" depart="0.21">
        <walk from="A5A6" to="B0A0"/>
    </person>
    <person id="22" depart="0.22">
        <walk from="H0G0" to="B2B1"/>
    </person>
    <person id="23" depart="0.23">
        <walk from="F1F2" to="I7I8"/>
    </person>
    <person id="24" depart="0.24">
        <walk from="G6G7" to="C7B7"/>
    </person>
    <person id="25" depart="0.25">
        <walk from="A5A6" to="H6H7"/>
    </person>
    <person id="26" depart="0.26">
        <walk from="B8B7" to="I8J8"/>
    </person>
    <person id="27" depart="0.27">
        <walk from="I2I1" to="D3D4"/>
    </person>
    <person id="28" depart="0.28">
        <walk from="I7H7" to="B1A1"/>
    </person>
    <person id="29" depart="0.29">
        <walk from="E5F5" to="I7H7"/>
    </person>
    <person id="30" depart="0.30">
        <walk from="H5I5" to="E4E5"/>
    </person>
    <person id="31" depart="0.31">
        <walk from="B0A0" to="G1H1"/>
    </person>
    <person id="32" depart="0.32">
    	<walk from="D5C5" to="H2H3"/>
        <walk from="D5C5" to="C5D5"/>
    </person>
    <person id="33" depart="0.33">
        <walk from="G5F5" to="D5E5"/>
    </person>
    <person id="34" depart="0.34">
        <walk from="F6F7" to="H8H9"/>
    </person>
    <person id="35" depart="0.35">
        <walk from="F4F3" to="C0D0"/>
    </person>
    <person id="36" depart="0.36">
        <walk from="C8C9" to="D1D0"/>
    </person>
    <person id="37" depart="0.37">
        <walk from="F2G2" to="A0B0"/>
    </person>
    <person id="38" depart="0.38">
        <walk from="A9A8" to="B8B9"/>
    </person>
    <person id="39" depart="0.39">
        <walk from="H0H1" to="B3A3"/>
    </person>
    <person id="40" depart="0.40">
        <walk from="H1H2" to="F3F4"/>
    </person>
    <person id="41" depart="0.41">
        <walk from="G5G4" to="B9B8"/>
    </person>
    <person id="42" depart="0.42">
        <walk from="B5C5" to="F5F6"/>
    </person>
    <person id="43" depart="0.43">
        <walk from="F2F1" to="D4D3"/>
    </person>
    <person id="44" depart="0.44">
        <walk from="G7G8" to="D5C5"/>
    </person>
    <person id="45" depart="0.45">
        <walk from="D5C5" to="F9E9"/>
    </person>
    <person id="46" depart="0.46">
        <walk from="D1D0" to="H1H2"/>
    </person>
    <person id="47" depart="0.47">
        <walk from="C9C8" to="C5B5"/>
    </person>
    <person id="48" depart="0.48">
        <walk from="B0C0" to="G3G2"/>
    </person>
    <person id="49" depart="0.49">
        <walk from="H7I7" to="E4E5"/>
    </person>
    <person id="50" depart="0.50">
        <walk from="I0H0" to="F5F4"/>
    </person>
    <person id="51" depart="0.51">
        <walk from="B7C7" to="E5D5"/>
    </person>
    <person id="52" depart="0.52">
        <walk from="A0B0" to="F6G6"/>
    </person>
    <person id="53" depart="0.53">
        <walk from="B8B9" to="E5D5"/>
    </person>
    <person id="54" depart="0.54">
        <walk from="E8F8" to="H7I7"/>
    </person>
    <person id="55" depart="0.55">
        <walk from="I7J7" to="B6B5"/>
    </person>
    <person id="56" depart="0.56">
        <walk from="H5I5" to="D5E5"/>
    </person>
    <person id="57" depart="0.57">
        <walk from="A8A9" to="H3H2"/>
    </person>
    <person id="58" depart="0.58">
        <walk from="H5I5" to="G6G7"/>
    </person>
    <person id="59" depart="0.59">
        <walk from="B6A6" to="C4B4"/>
    </person>
    <person id="60" depart="0.60">
        <walk from="D6E6" to="F5F4"/>
    </person>
    <person id="61" depart="0.61">
        <walk from="F2G2" to="E1E2"/>
    </person>
    <person id="62" depart="0.62">
        <walk from="G7F7" to="E7E8"/>
    </person>
    <person id="63" depart="0.63">
        <walk from="B0C0" to="G3G4"/>
    </person>
    <person id="64" depart="0.64">
        <walk from="I7J7" to="B1C1"/>
    </person>
    <person id="65" depart="0.65">
        <walk from="I9J9" to="H9H8"/>
    </person>
    <person id="66" depart="0.66">
        <walk from="H9G9" to="B1B2"/>
    </person>
    <person id="67" depart="0.67">
        <walk from="I1J1" to="F2G2"/>
    </person>
    <person id="68" depart="0.68">
        <walk from="F3G3" to="B3B2"/>
    </person>
    <person id="69" depart="0.69">
        <walk from="D1E1" to="E5D5"/>
    </person>
    <person id="70" depart="0.70">
        <walk from="J9J8" to="I5H5"/>
    </person>
    <person id="71" depart="0.71">
        <walk from="C3C2" to="I4J4"/>
    </person>
    <person id="72" depart="0.72">
        <walk from="F5F4" to="E5F5"/>
    </person>
    <person id="73" depart="0.73">
        <walk from="G2H2" to="A8A9"/>
    </person>
    <person id="74" depart="0.74">
        <walk from="A9B9" to="F9G9"/>
    </person>
    <person id="75" depart="0.75">
        <walk from="J1I1" to="F1F2"/>
    </person>
    <person id="76" depart="0.76">
        <walk from="E4D4" to="C1B1"/>
    </person>
    <person id="77" depart="0.77">
        <walk from="B1C1" to="A0A1"/>
    </person>
    <person id="78" depart="0.78">
        <walk from="J8J9" to="A4B4"/>
    </person>
    <person id="79" depart="0.79">
        <walk from="B7C7" to="B8B7"/>
    </person>
    <person id="80" depart="0.80">
        <walk from="D8C8" to="C8C7"/>
    </person>
    <person id="81" depart="0.81">
        <walk from="D4D5" to="H3H4"/>
    </person>
    <person id="82" depart="0.82">
        <walk from="B2C2" to="H4H3"/>
    </person>
    <person id="83" depart="0.83">
        <walk from="E6F6" to="A7A6"/>
    </person>
    <person id="84" depart="0.84">
        <walk from="D7D8" to="C7D7"/>
    </person>
    <person id="85" depart="0.85">
        <walk from="G6G5" to="E1E2"/>
    </person>
    <person id="86" depart="0.86">
        <walk from="C8C7" to="D7D8"/>
    </person>
    <person id="87" depart="0.87">
        <walk from="I6H6" to="I6J6"/>
    </person>
    <person id="88" depart="0.88">
        <walk from="G3G4" to="F3G3"/>
    </person>
    <person id="89" depart="0.89">
        <walk from="A5A4" to="F0G0"/>
    </person>
    <person id="90" depart="0.90">
        <walk from="J5I5" to="H7I7"/>
    </person>
    <person id="91" depart="0.91">
        <walk from="F6F5" to="E3D3"/>
    </person>
    <person id="92" depart="0.92">
        <walk from="I8I7" to="A3A4"/>
    </person>
    <person id="93" depart="0.93">
        <walk from="G6G5" to="D5C5"/>
    </person>
    <person id="94" depart="0.94">
        <walk from="E5F5" to="I1J1"/>
    </person>
    <person id="95" depart="0.95">
        <walk from="C9B9" to="A6B6"/>
    </person>
    <person id="96" depart="0.96">
        <walk from="B1A1" to="B8C8"/>
    </person>
    <person id="97" depart="0.97">
        <walk from="D6D5" to="G3F3"/>
    </person>
    <person id="98" depart="0.98">
        <walk from="H6H5" to="J7I7"/>
    </person>
    <person id="99" depart="0.99">
        <walk from="A6B6" to="A2A3"/>
    </person>
    -->
</routes>
