<?xml version="1.0"?>
<!-- generated on Tue Mar 26 14:51:52 2013 by SUMO duarouter Version 0.16.0
<?xml version="1.0" encoding="UTF-8"?>

<configuration xmlns:xsi="http://www.w3.org/2001/XMLSchema-instance" xsi:noNamespaceSchemaLocation="http://sumo.sf.net/xsd/duarouterConfiguration.xsd">

    <input>
        <net-file value="network.net.xml"/>
        <trip-files value="trips.trips.xml"/>
    </input>

    <output>
        <output-file value="20_0.rou.xml"/>
    </output>

</configuration>
-->
<routes xmlns:xsi="http://www.w3.org/2001/XMLSchema-instance" xsi:nonamespaceschemalocation="http://sumo.sf.net/xsd/routes_file.xsd">
 <vehicle depart="0.00" id="t0">
  <route edges="7/1to7/2 7/2to7/3 7/3to6/3 6/3to5/3 5/3to4/3 4/3to3/3 3/3to2/3">
  </route>
 </vehicle>
 <vehicle depart="0.00" id="t1">
<route edges="7/1to7/2 7/2to7/3 7/3to7/4 7/4to7/5 7/5to7/6 7/6to7/7 7/7to7/8">  
  </route>
 </vehicle>
 <vehicle depart="0.00" id="t2">
  <route edges="7/1to7/2 7/2to7/3 7/3to6/3 6/3to5/3 5/3to4/3 4/3to3/3 3/3to2/3">
  </route>
 </vehicle>
 <vehicle depart="0.00" id="t3">
<route edges="7/1to7/2 7/2to7/3 7/3to7/4 7/4to7/5 7/5to7/6 7/6to7/7 7/7to7/8">  
  </route>
 </vehicle>
 <vehicle depart="0.00" id="t4">
  <route edges="7/1to7/2 7/2to7/3 7/3to6/3 6/3to5/3 5/3to4/3 4/3to3/3 3/3to2/3">
  </route>
 </vehicle>
 <vehicle depart="0.00" id="t5">
<route edges="7/1to7/2 7/2to7/3 7/3to7/4 7/4to7/5 7/5to7/6 7/6to7/7 7/7to7/8">  
  </route>
 </vehicle>
 <vehicle depart="0.00" id="t6">
  <route edges="7/1to7/2 7/2to7/3 7/3to6/3 6/3to5/3 5/3to4/3 4/3to3/3 3/3to2/3">
  </route>
 </vehicle>
 <vehicle depart="0.00" id="t7">
<route edges="7/1to7/2 7/2to7/3 7/3to7/4 7/4to7/5 7/5to7/6 7/6to7/7 7/7to7/8">  
  </route>
 </vehicle>
 <vehicle depart="0.00" id="t8">
  <route edges="7/1to7/2 7/2to7/3 7/3to6/3 6/3to5/3 5/3to4/3 4/3to3/3 3/3to2/3">
  </route>
 </vehicle>
 <vehicle depart="0.00" id="t9">
<route edges="7/1to7/2 7/2to7/3 7/3to7/4 7/4to7/5 7/5to7/6 7/6to7/7 7/7to7/8">  
  </route>
 </vehicle>
 <vehicle depart="0.00" id="t10">
  <route edges="7/1to7/2 7/2to7/3 7/3to7/4 7/4to7/5 7/5to7/6 7/6to7/7 7/7to7/8">
  </route>
 </vehicle>
 <vehicle depart="0.00" id="t11">
  <route edges="7/1to7/2 7/2to7/3 7/3to6/3 6/3to5/3 5/3to4/3 4/3to3/3 3/3to2/3">
  </route>
 </vehicle>
 <vehicle depart="0.00" id="t12">
  <route edges="7/1to7/2 7/2to7/3 7/3to7/4 7/4to7/5 7/5to7/6 7/6to7/7 7/7to7/8">
  </route>
 </vehicle>
 <vehicle depart="0.00" id="t13">
  <route edges="7/1to7/2 7/2to7/3 7/3to6/3 6/3to5/3 5/3to4/3 4/3to3/3 3/3to2/3">
  </route>
 </vehicle>
 <vehicle depart="0.00" id="t14">
  <route edges="7/1to7/2 7/2to7/3 7/3to7/4 7/4to7/5 7/5to7/6 7/6to7/7 7/7to7/8">
  </route>
 </vehicle>
 <vehicle depart="0.00" id="t15">
  <route edges="7/1to7/2 7/2to7/3 7/3to6/3 6/3to5/3 5/3to4/3 4/3to3/3 3/3to2/3">
  </route>
 </vehicle>
 <vehicle depart="0.00" id="t16">
  <route edges="7/1to7/2 7/2to7/3 7/3to6/3 6/3to5/3 5/3to4/3 4/3to3/3 3/3to2/3">
  </route>
 </vehicle>
 <vehicle depart="0.00" id="t17">
  <route edges="7/1to7/2 7/2to7/3 7/3to6/3 6/3to5/3 5/3to4/3 4/3to3/3 3/3to2/3">
  </route>
 </vehicle>
 <vehicle depart="0.00" id="t18">
  <route edges="7/1to7/2 7/2to7/3 7/3to7/4 7/4to7/5 7/5to7/6 7/6to7/7 7/7to7/8">
  </route>
 </vehicle>
</routes>
