<?xml version="1.0" encoding="iso-8859-1"?>

<!-- generated on Tue Sep 11 13:54:01 2012 by SUMO netgen Version 0.13.1
<?xml version="1.0" encoding="iso-8859-1"?>

<configuration xmlns:xsi="http://www.w3.org/2001/XMLSchema-instance" xsi:noNamespaceSchemaLocation="http://sumo.sf.net/xsd/netgenConfiguration.xsd">

    <grid_network>
        <grid value="true"/>
        <grid.number value="10"/>
        <grid.length value="100"/>
    </grid_network>

    <output>
        <output-file value="network.net.xml"/>
    </output>

    <tls_building>
        <tls.green.time value="20"/>
    </tls_building>

    <processing>
        <no-turnarounds value="true"/>
    </processing>

</configuration>
-->

<net version="0.13" xmlns:xsi="http://www.w3.org/2001/XMLSchema-instance" xsi:noNamespaceSchemaLocation="http://sumo.sf.net/xsd/net_file.xsd">

    <location netOffset="0.00,0.00" convBoundary="0.00,0.00,900.00,900.00" origBoundary="0.00,0.00,900.00,900.00" projParameter="!"/>

    <edge id=":0/0_0" function="internal">
        <lane id=":0/0_0_0" index="0" speed="13.90" length="7.90" shape="-1.65,3.25 -1.34,1.11 -0.43,-0.43 1.11,-1.34 3.25,-1.65"/>
    </edge>
    <edge id=":0/0_1" function="internal">
        <lane id=":0/0_1_0" index="0" speed="13.90" length="2.58" shape="3.25,1.65 2.55,1.75 2.05,2.05 1.75,2.55 1.65,3.25"/>
    </edge>
    <edge id=":0/1_0" function="internal">
        <lane id=":0/1_0_0" index="0" speed="13.90" length="9.50" shape="-1.65,104.75 -1.65,95.25"/>
    </edge>
    <edge id=":0/1_1" function="internal">
        <lane id=":0/1_1_0" index="0" speed="13.90" length="7.14" shape="-1.65,104.75 -1.25,101.95 -0.05,99.95 1.65,98.93"/>
    </edge>
    <edge id=":0/1_6" function="internal">
        <lane id=":0/1_6_0" index="0" speed="13.90" length="3.18" shape="1.65,98.93 1.95,98.75 4.75,98.35"/>
    </edge>
    <edge id=":0/1_2" function="internal">
        <lane id=":0/1_2_0" index="0" speed="13.90" length="5.00" shape="4.75,101.65 3.39,101.84 2.43,102.43 1.84,103.39 1.65,104.75"/>
    </edge>
    <edge id=":0/1_3" function="internal">
        <lane id=":0/1_3_0" index="0" speed="13.90" length="10.32" shape="4.75,101.65 1.95,101.25 -0.05,100.05 -1.25,98.05 -1.65,95.25"/>
    </edge>
    <edge id=":0/1_4" function="internal">
        <lane id=":0/1_4_0" index="0" speed="13.90" length="5.00" shape="1.65,95.25 1.84,96.61 2.43,97.58 3.39,98.16 4.75,98.35"/>
    </edge>
    <edge id=":0/1_5" function="internal">
        <lane id=":0/1_5_0" index="0" speed="13.90" length="9.50" shape="1.65,95.25 1.65,104.75"/>
    </edge>
    <edge id=":0/2_0" function="internal">
        <lane id=":0/2_0_0" index="0" speed="13.90" length="9.50" shape="-1.65,204.75 -1.65,195.25"/>
    </edge>
    <edge id=":0/2_1" function="internal">
        <lane id=":0/2_1_0" index="0" speed="13.90" length="7.14" shape="-1.65,204.75 -1.25,201.95 -0.05,199.95 1.65,198.93"/>
    </edge>
    <edge id=":0/2_6" function="internal">
        <lane id=":0/2_6_0" index="0" speed="13.90" length="3.18" shape="1.65,198.93 1.95,198.75 4.75,198.35"/>
    </edge>
    <edge id=":0/2_2" function="internal">
        <lane id=":0/2_2_0" index="0" speed="13.90" length="5.00" shape="4.75,201.65 3.39,201.84 2.43,202.43 1.84,203.39 1.65,204.75"/>
    </edge>
    <edge id=":0/2_3" function="internal">
        <lane id=":0/2_3_0" index="0" speed="13.90" length="10.32" shape="4.75,201.65 1.95,201.25 -0.05,200.05 -1.25,198.05 -1.65,195.25"/>
    </edge>
    <edge id=":0/2_4" function="internal">
        <lane id=":0/2_4_0" index="0" speed="13.90" length="5.00" shape="1.65,195.25 1.84,196.61 2.43,197.58 3.39,198.16 4.75,198.35"/>
    </edge>
    <edge id=":0/2_5" function="internal">
        <lane id=":0/2_5_0" index="0" speed="13.90" length="9.50" shape="1.65,195.25 1.65,204.75"/>
    </edge>
    <edge id=":0/3_0" function="internal">
        <lane id=":0/3_0_0" index="0" speed="13.90" length="9.50" shape="-1.65,304.75 -1.65,295.25"/>
    </edge>
    <edge id=":0/3_1" function="internal">
        <lane id=":0/3_1_0" index="0" speed="13.90" length="7.14" shape="-1.65,304.75 -1.25,301.95 -0.05,299.95 1.65,298.93"/>
    </edge>
    <edge id=":0/3_6" function="internal">
        <lane id=":0/3_6_0" index="0" speed="13.90" length="3.18" shape="1.65,298.93 1.95,298.75 4.75,298.35"/>
    </edge>
    <edge id=":0/3_2" function="internal">
        <lane id=":0/3_2_0" index="0" speed="13.90" length="5.00" shape="4.75,301.65 3.39,301.84 2.43,302.43 1.84,303.39 1.65,304.75"/>
    </edge>
    <edge id=":0/3_3" function="internal">
        <lane id=":0/3_3_0" index="0" speed="13.90" length="10.32" shape="4.75,301.65 1.95,301.25 -0.05,300.05 -1.25,298.05 -1.65,295.25"/>
    </edge>
    <edge id=":0/3_4" function="internal">
        <lane id=":0/3_4_0" index="0" speed="13.90" length="5.00" shape="1.65,295.25 1.84,296.61 2.43,297.58 3.39,298.16 4.75,298.35"/>
    </edge>
    <edge id=":0/3_5" function="internal">
        <lane id=":0/3_5_0" index="0" speed="13.90" length="9.50" shape="1.65,295.25 1.65,304.75"/>
    </edge>
    <edge id=":0/4_0" function="internal">
        <lane id=":0/4_0_0" index="0" speed="13.90" length="9.50" shape="-1.65,404.75 -1.65,395.25"/>
    </edge>
    <edge id=":0/4_1" function="internal">
        <lane id=":0/4_1_0" index="0" speed="13.90" length="7.14" shape="-1.65,404.75 -1.25,401.95 -0.05,399.95 1.65,398.93"/>
    </edge>
    <edge id=":0/4_6" function="internal">
        <lane id=":0/4_6_0" index="0" speed="13.90" length="3.18" shape="1.65,398.93 1.95,398.75 4.75,398.35"/>
    </edge>
    <edge id=":0/4_2" function="internal">
        <lane id=":0/4_2_0" index="0" speed="13.90" length="5.00" shape="4.75,401.65 3.39,401.84 2.43,402.43 1.84,403.39 1.65,404.75"/>
    </edge>
    <edge id=":0/4_3" function="internal">
        <lane id=":0/4_3_0" index="0" speed="13.90" length="10.32" shape="4.75,401.65 1.95,401.25 -0.05,400.05 -1.25,398.05 -1.65,395.25"/>
    </edge>
    <edge id=":0/4_4" function="internal">
        <lane id=":0/4_4_0" index="0" speed="13.90" length="5.00" shape="1.65,395.25 1.84,396.61 2.43,397.58 3.39,398.16 4.75,398.35"/>
    </edge>
    <edge id=":0/4_5" function="internal">
        <lane id=":0/4_5_0" index="0" speed="13.90" length="9.50" shape="1.65,395.25 1.65,404.75"/>
    </edge>
    <edge id=":0/5_0" function="internal">
        <lane id=":0/5_0_0" index="0" speed="13.90" length="9.50" shape="-1.65,504.75 -1.65,495.25"/>
    </edge>
    <edge id=":0/5_1" function="internal">
        <lane id=":0/5_1_0" index="0" speed="13.90" length="7.14" shape="-1.65,504.75 -1.25,501.95 -0.05,499.95 1.65,498.93"/>
    </edge>
    <edge id=":0/5_6" function="internal">
        <lane id=":0/5_6_0" index="0" speed="13.90" length="3.18" shape="1.65,498.93 1.95,498.75 4.75,498.35"/>
    </edge>
    <edge id=":0/5_2" function="internal">
        <lane id=":0/5_2_0" index="0" speed="13.90" length="5.00" shape="4.75,501.65 3.39,501.84 2.43,502.43 1.84,503.39 1.65,504.75"/>
    </edge>
    <edge id=":0/5_3" function="internal">
        <lane id=":0/5_3_0" index="0" speed="13.90" length="10.32" shape="4.75,501.65 1.95,501.25 -0.05,500.05 -1.25,498.05 -1.65,495.25"/>
    </edge>
    <edge id=":0/5_4" function="internal">
        <lane id=":0/5_4_0" index="0" speed="13.90" length="5.00" shape="1.65,495.25 1.84,496.61 2.43,497.58 3.39,498.16 4.75,498.35"/>
    </edge>
    <edge id=":0/5_5" function="internal">
        <lane id=":0/5_5_0" index="0" speed="13.90" length="9.50" shape="1.65,495.25 1.65,504.75"/>
    </edge>
    <edge id=":0/6_0" function="internal">
        <lane id=":0/6_0_0" index="0" speed="13.90" length="9.50" shape="-1.65,604.75 -1.65,595.25"/>
    </edge>
    <edge id=":0/6_1" function="internal">
        <lane id=":0/6_1_0" index="0" speed="13.90" length="7.14" shape="-1.65,604.75 -1.25,601.95 -0.05,599.95 1.65,598.93"/>
    </edge>
    <edge id=":0/6_6" function="internal">
        <lane id=":0/6_6_0" index="0" speed="13.90" length="3.18" shape="1.65,598.93 1.95,598.75 4.75,598.35"/>
    </edge>
    <edge id=":0/6_2" function="internal">
        <lane id=":0/6_2_0" index="0" speed="13.90" length="5.00" shape="4.75,601.65 3.39,601.84 2.43,602.42 1.84,603.39 1.65,604.75"/>
    </edge>
    <edge id=":0/6_3" function="internal">
        <lane id=":0/6_3_0" index="0" speed="13.90" length="10.32" shape="4.75,601.65 1.95,601.25 -0.05,600.05 -1.25,598.05 -1.65,595.25"/>
    </edge>
    <edge id=":0/6_4" function="internal">
        <lane id=":0/6_4_0" index="0" speed="13.90" length="5.00" shape="1.65,595.25 1.84,596.61 2.43,597.58 3.39,598.16 4.75,598.35"/>
    </edge>
    <edge id=":0/6_5" function="internal">
        <lane id=":0/6_5_0" index="0" speed="13.90" length="9.50" shape="1.65,595.25 1.65,604.75"/>
    </edge>
    <edge id=":0/7_0" function="internal">
        <lane id=":0/7_0_0" index="0" speed="13.90" length="9.50" shape="-1.65,704.75 -1.65,695.25"/>
    </edge>
    <edge id=":0/7_1" function="internal">
        <lane id=":0/7_1_0" index="0" speed="13.90" length="7.14" shape="-1.65,704.75 -1.25,701.95 -0.05,699.95 1.65,698.93"/>
    </edge>
    <edge id=":0/7_6" function="internal">
        <lane id=":0/7_6_0" index="0" speed="13.90" length="3.18" shape="1.65,698.93 1.95,698.75 4.75,698.35"/>
    </edge>
    <edge id=":0/7_2" function="internal">
        <lane id=":0/7_2_0" index="0" speed="13.90" length="5.00" shape="4.75,701.65 3.39,701.84 2.43,702.42 1.84,703.39 1.65,704.75"/>
    </edge>
    <edge id=":0/7_3" function="internal">
        <lane id=":0/7_3_0" index="0" speed="13.90" length="10.32" shape="4.75,701.65 1.95,701.25 -0.05,700.05 -1.25,698.05 -1.65,695.25"/>
    </edge>
    <edge id=":0/7_4" function="internal">
        <lane id=":0/7_4_0" index="0" speed="13.90" length="5.00" shape="1.65,695.25 1.84,696.61 2.43,697.57 3.39,698.16 4.75,698.35"/>
    </edge>
    <edge id=":0/7_5" function="internal">
        <lane id=":0/7_5_0" index="0" speed="13.90" length="9.50" shape="1.65,695.25 1.65,704.75"/>
    </edge>
    <edge id=":0/8_0" function="internal">
        <lane id=":0/8_0_0" index="0" speed="13.90" length="9.50" shape="-1.65,804.75 -1.65,795.25"/>
    </edge>
    <edge id=":0/8_1" function="internal">
        <lane id=":0/8_1_0" index="0" speed="13.90" length="7.14" shape="-1.65,804.75 -1.25,801.95 -0.05,799.95 1.65,798.93"/>
    </edge>
    <edge id=":0/8_6" function="internal">
        <lane id=":0/8_6_0" index="0" speed="13.90" length="3.18" shape="1.65,798.93 1.95,798.75 4.75,798.35"/>
    </edge>
    <edge id=":0/8_2" function="internal">
        <lane id=":0/8_2_0" index="0" speed="13.90" length="5.00" shape="4.75,801.65 3.39,801.84 2.43,802.42 1.84,803.39 1.65,804.75"/>
    </edge>
    <edge id=":0/8_3" function="internal">
        <lane id=":0/8_3_0" index="0" speed="13.90" length="10.32" shape="4.75,801.65 1.95,801.25 -0.05,800.05 -1.25,798.05 -1.65,795.25"/>
    </edge>
    <edge id=":0/8_4" function="internal">
        <lane id=":0/8_4_0" index="0" speed="13.90" length="5.00" shape="1.65,795.25 1.84,796.61 2.43,797.57 3.39,798.16 4.75,798.35"/>
    </edge>
    <edge id=":0/8_5" function="internal">
        <lane id=":0/8_5_0" index="0" speed="13.90" length="9.50" shape="1.65,795.25 1.65,804.75"/>
    </edge>
    <edge id=":0/9_0" function="internal">
        <lane id=":0/9_0_0" index="0" speed="13.90" length="7.90" shape="3.25,901.65 1.11,901.34 -0.43,900.42 -1.34,898.89 -1.65,896.75"/>
    </edge>
    <edge id=":0/9_1" function="internal">
        <lane id=":0/9_1_0" index="0" speed="13.90" length="2.58" shape="1.65,896.75 1.75,897.45 2.05,897.95 2.55,898.25 3.25,898.35"/>
    </edge>
    <edge id=":1/0_0" function="internal">
        <lane id=":1/0_0_0" index="0" speed="13.90" length="5.00" shape="98.35,4.75 98.16,3.39 97.57,2.43 96.61,1.84 95.25,1.65"/>
    </edge>
    <edge id=":1/0_1" function="internal">
        <lane id=":1/0_1_0" index="0" speed="13.90" length="10.32" shape="98.35,4.75 98.75,1.95 99.95,-0.05 101.95,-1.25 104.75,-1.65"/>
    </edge>
    <edge id=":1/0_2" function="internal">
        <lane id=":1/0_2_0" index="0" speed="13.90" length="5.00" shape="104.75,1.65 103.39,1.84 102.43,2.42 101.84,3.39 101.65,4.75"/>
    </edge>
    <edge id=":1/0_3" function="internal">
        <lane id=":1/0_3_0" index="0" speed="13.90" length="9.50" shape="104.75,1.65 95.25,1.65"/>
    </edge>
    <edge id=":1/0_4" function="internal">
        <lane id=":1/0_4_0" index="0" speed="13.90" length="9.50" shape="95.25,-1.65 104.75,-1.65"/>
    </edge>
    <edge id=":1/0_5" function="internal">
        <lane id=":1/0_5_0" index="0" speed="13.90" length="7.14" shape="95.25,-1.65 98.05,-1.25 100.05,-0.05 101.07,1.65"/>
    </edge>
    <edge id=":1/0_6" function="internal">
        <lane id=":1/0_6_0" index="0" speed="13.90" length="3.18" shape="101.07,1.65 101.25,1.95 101.65,4.75"/>
    </edge>
    <edge id=":1/1_0" function="internal">
        <lane id=":1/1_0_0" index="0" speed="13.90" length="5.00" shape="98.35,104.75 98.16,103.39 97.57,102.43 96.61,101.84 95.25,101.65"/>
    </edge>
    <edge id=":1/1_1" function="internal">
        <lane id=":1/1_1_0" index="0" speed="13.90" length="9.50" shape="98.35,104.75 98.35,95.25"/>
    </edge>
    <edge id=":1/1_2" function="internal">
        <lane id=":1/1_2_0" index="0" speed="13.90" length="7.14" shape="98.35,104.75 98.75,101.95 99.95,99.95 101.65,98.93"/>
    </edge>
    <edge id=":1/1_12" function="internal">
        <lane id=":1/1_12_0" index="0" speed="13.90" length="3.18" shape="101.65,98.93 101.95,98.75 104.75,98.35"/>
    </edge>
    <edge id=":1/1_3" function="internal">
        <lane id=":1/1_3_0" index="0" speed="13.90" length="5.00" shape="104.75,101.65 103.39,101.84 102.43,102.43 101.84,103.39 101.65,104.75"/>
    </edge>
    <edge id=":1/1_4" function="internal">
        <lane id=":1/1_4_0" index="0" speed="13.90" length="9.50" shape="104.75,101.65 95.25,101.65"/>
    </edge>
    <edge id=":1/1_5" function="internal">
        <lane id=":1/1_5_0" index="0" speed="13.90" length="10.32" shape="104.75,101.65 101.95,101.25 99.95,100.05 98.75,98.05 98.35,95.25"/>
    </edge>
    <edge id=":1/1_6" function="internal">
        <lane id=":1/1_6_0" index="0" speed="13.90" length="5.00" shape="101.65,95.25 101.84,96.61 102.43,97.58 103.39,98.16 104.75,98.35"/>
    </edge>
    <edge id=":1/1_7" function="internal">
        <lane id=":1/1_7_0" index="0" speed="13.90" length="9.50" shape="101.65,95.25 101.65,104.75"/>
    </edge>
    <edge id=":1/1_8" function="internal">
        <lane id=":1/1_8_0" index="0" speed="13.90" length="7.14" shape="101.65,95.25 101.25,98.05 100.05,100.05 98.35,101.07"/>
    </edge>
    <edge id=":1/1_13" function="internal">
        <lane id=":1/1_13_0" index="0" speed="13.90" length="3.18" shape="98.35,101.07 98.05,101.25 95.25,101.65"/>
    </edge>
    <edge id=":1/1_9" function="internal">
        <lane id=":1/1_9_0" index="0" speed="13.90" length="5.00" shape="95.25,98.35 96.61,98.16 97.57,97.58 98.16,96.61 98.35,95.25"/>
    </edge>
    <edge id=":1/1_10" function="internal">
        <lane id=":1/1_10_0" index="0" speed="13.90" length="9.50" shape="95.25,98.35 104.75,98.35"/>
    </edge>
    <edge id=":1/1_11" function="internal">
        <lane id=":1/1_11_0" index="0" speed="13.90" length="10.32" shape="95.25,98.35 98.05,98.75 100.05,99.95 101.25,101.95 101.65,104.75"/>
    </edge>
    <edge id=":1/2_0" function="internal">
        <lane id=":1/2_0_0" index="0" speed="13.90" length="5.00" shape="98.35,204.75 98.16,203.39 97.57,202.42 96.61,201.84 95.25,201.65"/>
    </edge>
    <edge id=":1/2_1" function="internal">
        <lane id=":1/2_1_0" index="0" speed="13.90" length="9.50" shape="98.35,204.75 98.35,195.25"/>
    </edge>
    <edge id=":1/2_2" function="internal">
        <lane id=":1/2_2_0" index="0" speed="13.90" length="7.14" shape="98.35,204.75 98.75,201.95 99.95,199.95 101.65,198.93"/>
    </edge>
    <edge id=":1/2_12" function="internal">
        <lane id=":1/2_12_0" index="0" speed="13.90" length="3.18" shape="101.65,198.93 101.95,198.75 104.75,198.35"/>
    </edge>
    <edge id=":1/2_3" function="internal">
        <lane id=":1/2_3_0" index="0" speed="13.90" length="5.00" shape="104.75,201.65 103.39,201.84 102.43,202.43 101.84,203.39 101.65,204.75"/>
    </edge>
    <edge id=":1/2_4" function="internal">
        <lane id=":1/2_4_0" index="0" speed="13.90" length="9.50" shape="104.75,201.65 95.25,201.65"/>
    </edge>
    <edge id=":1/2_5" function="internal">
        <lane id=":1/2_5_0" index="0" speed="13.90" length="10.32" shape="104.75,201.65 101.95,201.25 99.95,200.05 98.75,198.05 98.35,195.25"/>
    </edge>
    <edge id=":1/2_6" function="internal">
        <lane id=":1/2_6_0" index="0" speed="13.90" length="5.00" shape="101.65,195.25 101.84,196.61 102.43,197.58 103.39,198.16 104.75,198.35"/>
    </edge>
    <edge id=":1/2_7" function="internal">
        <lane id=":1/2_7_0" index="0" speed="13.90" length="9.50" shape="101.65,195.25 101.65,204.75"/>
    </edge>
    <edge id=":1/2_8" function="internal">
        <lane id=":1/2_8_0" index="0" speed="13.90" length="7.14" shape="101.65,195.25 101.25,198.05 100.05,200.05 98.35,201.07"/>
    </edge>
    <edge id=":1/2_13" function="internal">
        <lane id=":1/2_13_0" index="0" speed="13.90" length="3.18" shape="98.35,201.07 98.05,201.25 95.25,201.65"/>
    </edge>
    <edge id=":1/2_9" function="internal">
        <lane id=":1/2_9_0" index="0" speed="13.90" length="5.00" shape="95.25,198.35 96.61,198.16 97.57,197.57 98.16,196.61 98.35,195.25"/>
    </edge>
    <edge id=":1/2_10" function="internal">
        <lane id=":1/2_10_0" index="0" speed="13.90" length="9.50" shape="95.25,198.35 104.75,198.35"/>
    </edge>
    <edge id=":1/2_11" function="internal">
        <lane id=":1/2_11_0" index="0" speed="13.90" length="10.32" shape="95.25,198.35 98.05,198.75 100.05,199.95 101.25,201.95 101.65,204.75"/>
    </edge>
    <edge id=":1/3_0" function="internal">
        <lane id=":1/3_0_0" index="0" speed="13.90" length="5.00" shape="98.35,304.75 98.16,303.39 97.57,302.43 96.61,301.84 95.25,301.65"/>
    </edge>
    <edge id=":1/3_1" function="internal">
        <lane id=":1/3_1_0" index="0" speed="13.90" length="9.50" shape="98.35,304.75 98.35,295.25"/>
    </edge>
    <edge id=":1/3_2" function="internal">
        <lane id=":1/3_2_0" index="0" speed="13.90" length="7.14" shape="98.35,304.75 98.75,301.95 99.95,299.95 101.65,298.93"/>
    </edge>
    <edge id=":1/3_12" function="internal">
        <lane id=":1/3_12_0" index="0" speed="13.90" length="3.18" shape="101.65,298.93 101.95,298.75 104.75,298.35"/>
    </edge>
    <edge id=":1/3_3" function="internal">
        <lane id=":1/3_3_0" index="0" speed="13.90" length="5.00" shape="104.75,301.65 103.39,301.84 102.43,302.43 101.84,303.39 101.65,304.75"/>
    </edge>
    <edge id=":1/3_4" function="internal">
        <lane id=":1/3_4_0" index="0" speed="13.90" length="9.50" shape="104.75,301.65 95.25,301.65"/>
    </edge>
    <edge id=":1/3_5" function="internal">
        <lane id=":1/3_5_0" index="0" speed="13.90" length="10.32" shape="104.75,301.65 101.95,301.25 99.95,300.05 98.75,298.05 98.35,295.25"/>
    </edge>
    <edge id=":1/3_6" function="internal">
        <lane id=":1/3_6_0" index="0" speed="13.90" length="5.00" shape="101.65,295.25 101.84,296.61 102.43,297.58 103.39,298.16 104.75,298.35"/>
    </edge>
    <edge id=":1/3_7" function="internal">
        <lane id=":1/3_7_0" index="0" speed="13.90" length="9.50" shape="101.65,295.25 101.65,304.75"/>
    </edge>
    <edge id=":1/3_8" function="internal">
        <lane id=":1/3_8_0" index="0" speed="13.90" length="7.14" shape="101.65,295.25 101.25,298.05 100.05,300.05 98.35,301.07"/>
    </edge>
    <edge id=":1/3_13" function="internal">
        <lane id=":1/3_13_0" index="0" speed="13.90" length="3.18" shape="98.35,301.07 98.05,301.25 95.25,301.65"/>
    </edge>
    <edge id=":1/3_9" function="internal">
        <lane id=":1/3_9_0" index="0" speed="13.90" length="5.00" shape="95.25,298.35 96.61,298.16 97.57,297.58 98.16,296.61 98.35,295.25"/>
    </edge>
    <edge id=":1/3_10" function="internal">
        <lane id=":1/3_10_0" index="0" speed="13.90" length="9.50" shape="95.25,298.35 104.75,298.35"/>
    </edge>
    <edge id=":1/3_11" function="internal">
        <lane id=":1/3_11_0" index="0" speed="13.90" length="10.32" shape="95.25,298.35 98.05,298.75 100.05,299.95 101.25,301.95 101.65,304.75"/>
    </edge>
    <edge id=":1/4_0" function="internal">
        <lane id=":1/4_0_0" index="0" speed="13.90" length="5.00" shape="98.35,404.75 98.16,403.39 97.57,402.43 96.61,401.84 95.25,401.65"/>
    </edge>
    <edge id=":1/4_1" function="internal">
        <lane id=":1/4_1_0" index="0" speed="13.90" length="9.50" shape="98.35,404.75 98.35,395.25"/>
    </edge>
    <edge id=":1/4_2" function="internal">
        <lane id=":1/4_2_0" index="0" speed="13.90" length="7.14" shape="98.35,404.75 98.75,401.95 99.95,399.95 101.65,398.93"/>
    </edge>
    <edge id=":1/4_12" function="internal">
        <lane id=":1/4_12_0" index="0" speed="13.90" length="3.18" shape="101.65,398.93 101.95,398.75 104.75,398.35"/>
    </edge>
    <edge id=":1/4_3" function="internal">
        <lane id=":1/4_3_0" index="0" speed="13.90" length="5.00" shape="104.75,401.65 103.39,401.84 102.43,402.43 101.84,403.39 101.65,404.75"/>
    </edge>
    <edge id=":1/4_4" function="internal">
        <lane id=":1/4_4_0" index="0" speed="13.90" length="9.50" shape="104.75,401.65 95.25,401.65"/>
    </edge>
    <edge id=":1/4_5" function="internal">
        <lane id=":1/4_5_0" index="0" speed="13.90" length="10.32" shape="104.75,401.65 101.95,401.25 99.95,400.05 98.75,398.05 98.35,395.25"/>
    </edge>
    <edge id=":1/4_6" function="internal">
        <lane id=":1/4_6_0" index="0" speed="13.90" length="5.00" shape="101.65,395.25 101.84,396.61 102.43,397.58 103.39,398.16 104.75,398.35"/>
    </edge>
    <edge id=":1/4_7" function="internal">
        <lane id=":1/4_7_0" index="0" speed="13.90" length="9.50" shape="101.65,395.25 101.65,404.75"/>
    </edge>
    <edge id=":1/4_8" function="internal">
        <lane id=":1/4_8_0" index="0" speed="13.90" length="7.14" shape="101.65,395.25 101.25,398.05 100.05,400.05 98.35,401.07"/>
    </edge>
    <edge id=":1/4_13" function="internal">
        <lane id=":1/4_13_0" index="0" speed="13.90" length="3.18" shape="98.35,401.07 98.05,401.25 95.25,401.65"/>
    </edge>
    <edge id=":1/4_9" function="internal">
        <lane id=":1/4_9_0" index="0" speed="13.90" length="5.00" shape="95.25,398.35 96.61,398.16 97.57,397.58 98.16,396.61 98.35,395.25"/>
    </edge>
    <edge id=":1/4_10" function="internal">
        <lane id=":1/4_10_0" index="0" speed="13.90" length="9.50" shape="95.25,398.35 104.75,398.35"/>
    </edge>
    <edge id=":1/4_11" function="internal">
        <lane id=":1/4_11_0" index="0" speed="13.90" length="10.32" shape="95.25,398.35 98.05,398.75 100.05,399.95 101.25,401.95 101.65,404.75"/>
    </edge>
    <edge id=":1/5_0" function="internal">
        <lane id=":1/5_0_0" index="0" speed="13.90" length="5.00" shape="98.35,504.75 98.16,503.39 97.57,502.43 96.61,501.84 95.25,501.65"/>
    </edge>
    <edge id=":1/5_1" function="internal">
        <lane id=":1/5_1_0" index="0" speed="13.90" length="9.50" shape="98.35,504.75 98.35,495.25"/>
    </edge>
    <edge id=":1/5_2" function="internal">
        <lane id=":1/5_2_0" index="0" speed="13.90" length="7.14" shape="98.35,504.75 98.75,501.95 99.95,499.95 101.65,498.93"/>
    </edge>
    <edge id=":1/5_12" function="internal">
        <lane id=":1/5_12_0" index="0" speed="13.90" length="3.18" shape="101.65,498.93 101.95,498.75 104.75,498.35"/>
    </edge>
    <edge id=":1/5_3" function="internal">
        <lane id=":1/5_3_0" index="0" speed="13.90" length="5.00" shape="104.75,501.65 103.39,501.84 102.43,502.43 101.84,503.39 101.65,504.75"/>
    </edge>
    <edge id=":1/5_4" function="internal">
        <lane id=":1/5_4_0" index="0" speed="13.90" length="9.50" shape="104.75,501.65 95.25,501.65"/>
    </edge>
    <edge id=":1/5_5" function="internal">
        <lane id=":1/5_5_0" index="0" speed="13.90" length="10.32" shape="104.75,501.65 101.95,501.25 99.95,500.05 98.75,498.05 98.35,495.25"/>
    </edge>
    <edge id=":1/5_6" function="internal">
        <lane id=":1/5_6_0" index="0" speed="13.90" length="5.00" shape="101.65,495.25 101.84,496.61 102.43,497.58 103.39,498.16 104.75,498.35"/>
    </edge>
    <edge id=":1/5_7" function="internal">
        <lane id=":1/5_7_0" index="0" speed="13.90" length="9.50" shape="101.65,495.25 101.65,504.75"/>
    </edge>
    <edge id=":1/5_8" function="internal">
        <lane id=":1/5_8_0" index="0" speed="13.90" length="7.14" shape="101.65,495.25 101.25,498.05 100.05,500.05 98.35,501.07"/>
    </edge>
    <edge id=":1/5_13" function="internal">
        <lane id=":1/5_13_0" index="0" speed="13.90" length="3.18" shape="98.35,501.07 98.05,501.25 95.25,501.65"/>
    </edge>
    <edge id=":1/5_9" function="internal">
        <lane id=":1/5_9_0" index="0" speed="13.90" length="5.00" shape="95.25,498.35 96.61,498.16 97.57,497.58 98.16,496.61 98.35,495.25"/>
    </edge>
    <edge id=":1/5_10" function="internal">
        <lane id=":1/5_10_0" index="0" speed="13.90" length="9.50" shape="95.25,498.35 104.75,498.35"/>
    </edge>
    <edge id=":1/5_11" function="internal">
        <lane id=":1/5_11_0" index="0" speed="13.90" length="10.32" shape="95.25,498.35 98.05,498.75 100.05,499.95 101.25,501.95 101.65,504.75"/>
    </edge>
    <edge id=":1/6_0" function="internal">
        <lane id=":1/6_0_0" index="0" speed="13.90" length="5.00" shape="98.35,604.75 98.16,603.39 97.57,602.42 96.61,601.84 95.25,601.65"/>
    </edge>
    <edge id=":1/6_1" function="internal">
        <lane id=":1/6_1_0" index="0" speed="13.90" length="9.50" shape="98.35,604.75 98.35,595.25"/>
    </edge>
    <edge id=":1/6_2" function="internal">
        <lane id=":1/6_2_0" index="0" speed="13.90" length="7.14" shape="98.35,604.75 98.75,601.95 99.95,599.95 101.65,598.93"/>
    </edge>
    <edge id=":1/6_12" function="internal">
        <lane id=":1/6_12_0" index="0" speed="13.90" length="3.18" shape="101.65,598.93 101.95,598.75 104.75,598.35"/>
    </edge>
    <edge id=":1/6_3" function="internal">
        <lane id=":1/6_3_0" index="0" speed="13.90" length="5.00" shape="104.75,601.65 103.39,601.84 102.43,602.42 101.84,603.39 101.65,604.75"/>
    </edge>
    <edge id=":1/6_4" function="internal">
        <lane id=":1/6_4_0" index="0" speed="13.90" length="9.50" shape="104.75,601.65 95.25,601.65"/>
    </edge>
    <edge id=":1/6_5" function="internal">
        <lane id=":1/6_5_0" index="0" speed="13.90" length="10.32" shape="104.75,601.65 101.95,601.25 99.95,600.05 98.75,598.05 98.35,595.25"/>
    </edge>
    <edge id=":1/6_6" function="internal">
        <lane id=":1/6_6_0" index="0" speed="13.90" length="5.00" shape="101.65,595.25 101.84,596.61 102.43,597.58 103.39,598.16 104.75,598.35"/>
    </edge>
    <edge id=":1/6_7" function="internal">
        <lane id=":1/6_7_0" index="0" speed="13.90" length="9.50" shape="101.65,595.25 101.65,604.75"/>
    </edge>
    <edge id=":1/6_8" function="internal">
        <lane id=":1/6_8_0" index="0" speed="13.90" length="7.14" shape="101.65,595.25 101.25,598.05 100.05,600.05 98.35,601.07"/>
    </edge>
    <edge id=":1/6_13" function="internal">
        <lane id=":1/6_13_0" index="0" speed="13.90" length="3.18" shape="98.35,601.07 98.05,601.25 95.25,601.65"/>
    </edge>
    <edge id=":1/6_9" function="internal">
        <lane id=":1/6_9_0" index="0" speed="13.90" length="5.00" shape="95.25,598.35 96.61,598.16 97.57,597.58 98.16,596.61 98.35,595.25"/>
    </edge>
    <edge id=":1/6_10" function="internal">
        <lane id=":1/6_10_0" index="0" speed="13.90" length="9.50" shape="95.25,598.35 104.75,598.35"/>
    </edge>
    <edge id=":1/6_11" function="internal">
        <lane id=":1/6_11_0" index="0" speed="13.90" length="10.32" shape="95.25,598.35 98.05,598.75 100.05,599.95 101.25,601.95 101.65,604.75"/>
    </edge>
    <edge id=":1/7_0" function="internal">
        <lane id=":1/7_0_0" index="0" speed="13.90" length="5.00" shape="98.35,704.75 98.16,703.39 97.57,702.43 96.61,701.84 95.25,701.65"/>
    </edge>
    <edge id=":1/7_1" function="internal">
        <lane id=":1/7_1_0" index="0" speed="13.90" length="9.50" shape="98.35,704.75 98.35,695.25"/>
    </edge>
    <edge id=":1/7_2" function="internal">
        <lane id=":1/7_2_0" index="0" speed="13.90" length="7.14" shape="98.35,704.75 98.75,701.95 99.95,699.95 101.65,698.93"/>
    </edge>
    <edge id=":1/7_12" function="internal">
        <lane id=":1/7_12_0" index="0" speed="13.90" length="3.18" shape="101.65,698.93 101.95,698.75 104.75,698.35"/>
    </edge>
    <edge id=":1/7_3" function="internal">
        <lane id=":1/7_3_0" index="0" speed="13.90" length="5.00" shape="104.75,701.65 103.39,701.84 102.43,702.42 101.84,703.39 101.65,704.75"/>
    </edge>
    <edge id=":1/7_4" function="internal">
        <lane id=":1/7_4_0" index="0" speed="13.90" length="9.50" shape="104.75,701.65 95.25,701.65"/>
    </edge>
    <edge id=":1/7_5" function="internal">
        <lane id=":1/7_5_0" index="0" speed="13.90" length="10.32" shape="104.75,701.65 101.95,701.25 99.95,700.05 98.75,698.05 98.35,695.25"/>
    </edge>
    <edge id=":1/7_6" function="internal">
        <lane id=":1/7_6_0" index="0" speed="13.90" length="5.00" shape="101.65,695.25 101.84,696.61 102.43,697.57 103.39,698.16 104.75,698.35"/>
    </edge>
    <edge id=":1/7_7" function="internal">
        <lane id=":1/7_7_0" index="0" speed="13.90" length="9.50" shape="101.65,695.25 101.65,704.75"/>
    </edge>
    <edge id=":1/7_8" function="internal">
        <lane id=":1/7_8_0" index="0" speed="13.90" length="7.14" shape="101.65,695.25 101.25,698.05 100.05,700.05 98.35,701.07"/>
    </edge>
    <edge id=":1/7_13" function="internal">