<?xml version="1.0" encoding="UTF-8"?>
<!-- generated on 2021-11-25 13:05:10.893210 by $Id$ v1_10_0+0000-83496a5972
  options: -n .\grid_pedestrians.net.xml -b 0 -e 1 -p 0.01 <doubleminus>pedestrians -o grid_pedestrian.rou.xml
-->
<routes xmlns:xsi="http://www.w3.org/2001/XMLSchema-instance" xsi:noNamespaceSchemaLocation="http://sumo.dlr.de/xsd/routes_file.xsd">
    <person id="0" depart="0.00">
        <walk from="G3G2" to="A3A4"/>
    </person>
    <person id="1" depart="0.01">
        <walk from="C8C9" to="C3D3"/>
    </person>
    <person id="2" depart="0.02">
        <walk from="H2H3" to="G6G7"/>
    </person>
    <person id="3" depart="0.03">
        <walk from="I7H7" to="B1A1"/>
    </person>
    <person id="4" depart="0.04">
        <walk from="E2E3" to="A3B3"/>
    </person>
    <person id="5" depart="0.05">
        <walk from="C3C2" to="F0F1"/>
    </person>
    <person id="6" depart="0.06">
        <walk from="A3A4" to="C1C2"/>
    </person>
    <person id="7" depart="0.07">
        <walk from="G4F4" to="F4F3"/>
    </person>
    <person id="8" depart="0.08">
        <walk from="C3C4" to="F8F7"/>
    </person>
    <person id="9" depart="0.09">
        <walk from="H9G9" to="A1A0"/>
    </person>
    <person id="10" depart="0.10">
        <walk from="H8I8" to="G8G9"/>
    </person>
    <person id="11" depart="0.11">
        <walk from="D4E4" to="B7A7"/>
    </person>
    <person id="12" depart="0.12">
        <walk from="J4J3" to="D4D5"/>
    </person>
    <person id="13" depart="0.13">
        <walk from="B1B2" to="B1C1"/>
    </person>
    <person id="14" depart="0.14">
        <walk from="I3H3" to="F9G9"/>
    </person>
    <person id="15" depart="0.15">
        <walk from="H8I8" to="H1I1"/>
    </person>
    <person id="16" depart="0.16">
        <walk from="F3F4" to="J6J5"/>
    </person>
    <person id="17" depart="0.17">
        <walk from="D8D7" to="F4G4"/>
    </person>
    <person id="18" depart="0.18">
        <walk from="I1I0" to="G1G0"/>
    </person>
    <person id="19" depart="0.19">
        <walk from="I4I3" to="F7E7"/>
    </person>
    <person id="20" depart="0.20">
        <walk from="G9F9" to="A5B5"/>
    </person>
    <person id="21" depart="0.21">
        <walk from="C4C3" to="D0C0"/>
    </person>
    <person id="22" depart="0.22">
        <walk from="B0A0" to="C4C5"/>
    </person>
    <person id="23" depart="0.23">
        <walk from="B2B1" to="C8D8"/>
    </person>
    <person id="24" depart="0.24">
        <walk from="G2H2" to="D7C7"/>
    </person>
    <person id="25" depart="0.25">
        <walk from="D7D8" to="C2C3"/>
    </person>
    <person id="26" depart="0.26">
        <walk from="C7D7" to="J2I2"/>
    </person>
    <person id="27" depart="0.27">
        <walk from="G4F4" to="G0G1"/>
    </person>
    <person id="28" depart="0.28">
        <walk from="B8B9" to="H1I1"/>
    </person>
    <person id="29" depart="0.29">
        <walk from="B7C7" to="D8D7"/>
    </person>
    <person id="30" depart="0.30">
        <walk from="J8J7" to="G3G2"/>
    </person>
    <person id="31" depart="0.31">
        <walk from="F5F4" to="G7G6"/>
    </person>
    <person id="32" depart="0.32">
        <walk from="I2I3" to="H6G6"/>
    </person>
    <person id="33" depart="0.33">
        <walk from="C4C3" to="A4A3"/>
    </person>
    <person id="34" depart="0.34">
        <walk from="D2D3" to="C7D7"/>
    </person>
    <person id="35" depart="0.35">
        <walk from="C2C3" to="J2J3"/>
    </person>
    <person id="36" depart="0.36">
        <walk from="I5I6" to="D2D3"/>
    </person>
    <person id="37" depart="0.37">
        <walk from="G4G5" to="E0D0"/>
    </person>
    <person id="38" depart="0.38">
        <walk from="I9H9" to="E6D6"/>
    </person>
    <person id="39" depart="0.39">
        <walk from="C7C8" to="C5D5"/>
    </person>
    <person id="40" depart="0.40">
        <walk from="F5G5" to="C7C6"/>
    </person>
    <person id="41" depart="0.41">
        <walk from="F7G7" to="I7I8"/>
    </person>
    <person id="42" depart="0.42">
        <walk from="E0E1" to="C3C2"/>
    </person>
    <person id="43" depart="0.43">
        <walk from="J9J8" to="F1E1"/>
    </person>
    <person id="44" depart="0.44">
        <walk from="B1B0" to="A5B5"/>
    </person>
    <person id="45" depart="0.45">
        <walk from="B3A3" to="G2F2"/>
    </person>
    <person id="46" depart="0.46">
        <walk from="H7H8" to="E2E3"/>
    </person>
    <person id="47" depart="0.47">
        <walk from="A7B7" to="D8D9"/>
    </person>
    <person id="48" depart="0.48">
        <walk from="J9I9" to="F2G2"/>
    </person>
    <person id="49" depart="0.49">
        <walk from="J6I6" to="I4H4"/>
    </person>
    <person id="50" depart="0.50">
        <walk from="A1B1" to="H1G1"/>
    </person>
    <person id="51" depart="0.51">
        <walk from="G7F7" to="F3F4"/>
    </person>
    <person id="52" depart="0.52">
        <walk from="C7D7" to="G3G2"/>
    </person>
    <person id="53" depart="0.53">
        <walk from="B3B2" to="E3F3"/>
    </person>
    <person id="54" depart="0.54">
        <walk from="E5E6" to="J4I4"/>
    </person>
    <person id="55" depart="0.55">
        <walk from="I5I6" to="C7C6"/>
    </person>
    <person id="56" depart="0.56">
        <walk from="F0E0" to="B9B8"/>
    </person>
    <person id="57" depart="0.57">
        <walk from="I8J8" to="I5H5"/>
    </person>
    <person id="58" depart="0.58">
        <walk from="D1C1" to="G3G2"/>
    </person>
    <person id="59" depart="0.59">
        <walk from="G0G1" to="B7A7"/>
    </person>
    <person id="60" depart="0.60">
        <walk from="H4I4" to="F3G3"/>
    </person>
    <person id="61" depart="0.61">
        <walk from="H6H5" to="F2G2"/>
    </person>
    <person id="62" depart="0.62">
        <walk from="A0A1" to="D3D2"/>
    </person>
    <person id="63" depart="0.63">
        <walk from="A2B2" to="J1I1"/>
    </person>
    <person id="64" depart="0.64">
        <walk from="I5J5" to="I1I2"/>
    </person>
    <person id="65" depart="0.65">
        <walk from="D1E1" to="A7A6"/>
    </person>
    <person id="66" depart="0.66">
        <walk from="I5J5" to="J3I3"/>
    </person>
    <person id="67" depart="0.67">
        <walk from="B0C0" to="E8E7"/>
    </person>
    <person id="68" depart="0.68">
        <walk from="A8A9" to="H4H5"/>
    </person>
    <person id="69" depart="0.69">
        <walk from="H5G5" to="B4C4"/>
    </person>
    <person id="70" depart="0.70">
        <walk from="E7E8" to="F4F5"/>
    </person>
    <person id="71" depart="0.71">
        <walk from="C7C8" to="I5I4"/>
    </person>
    <person id="72" depart="0.72">
        <walk from="E2F2" to="C2D2"/>
    </person>
    <person id="73" depart="0.73">
        <walk from="F3G3" to="H1I1"/>
    </person>
    <person id="74" depart="0.74">
        <walk from="C1D1" to="D2D1"/>
    </person>
    <person id="75" depart="0.75">
        <walk from="J9I9" to="G4F4"/>
    </person>
    <person id="76" depart="0.76">
        <walk from="E4D4" to="F1G1"/>
    </person>
    <person id="77" depart="0.77">
        <walk from="B4A4" to="C3D3"/>
    </person>
    <person id="78" depart="0.78">
        <walk from="D4D5" to="F8E8"/>
    </person>
    <person id="79" depart="0.79">
        <walk from="C4C3" to="C3C4"/>
    </person>
    <person id="80" depart="0.80">
        <walk from="A8B8" to="G2G3"/>
    </person>
    <person id="81" depart="0.81">
        <walk from="C4C3" to="I8H8"/>
    </person>
    <person id="82" depart="0.82">
        <walk from="I4H4" to="A8B8"/>
    </person>
    <person id="83" depart="0.83">
        <walk from="C5B5" to="G5H5"/>
    </person>
    <person id="84" depart="0.84">
        <walk from="C3B3" to="B5A5"/>
    </person>
    <person id="85" depart="0.85">
        <walk from="J1J2" to="F6F7"/>
    </person>
    <person id="86" depart="0.86">
        <walk from="E7E6" to="H6I6"/>
    </person>
    <person id="87" depart="0.87">
        <walk from="H8I8" to="C0D0"/>
    </person>
    <person id="88" depart="0.88">
        <walk from="B1C1" to="E3E4"/>
    </person>
    <person id="89" depart="0.89">
        <walk from="E2F2" to="E6F6"/>
    </person>
    <person id="90" depart="0.90">
        <walk from="H1I1" to="G6G5"/>
    </person>
    <person id="91" depart="0.91">
        <walk from="J7J8" to="B2A2"/>
    </person>
    <person id="92" depart="0.92">
        <walk from="E0F0" to="D4E4"/>
    </person>
    <person id="93" depart="0.93">
        <walk from="I4I3" to="C6B6"/>
    </person>
    <person id="94" depart="0.94">
        <walk from="C0D0" to="E5D5"/>
    </person>
    <person id="95" depart="0.95">
        <walk from="E2E3" to="C8D8"/>
    </person>
    <person id="96" depart="0.96">
        <walk from="C6B6" to="J0I0"/>
    </person>
    <person id="97" depart="0.97">
        <walk from="E4E5" to="I4I3"/>
    </person>
    <person id="98" depart="0.98">
        <walk from="F4G4" to="A6A7"/>
    </person>
    <person id="99" depart="0.99">
        <walk from="J9J8" to="I1J1"/>
    </person>
</routes>
