<?xml version="1.0" encoding="UTF-8"?>

<!-- generated on 10/18/21 11:00:31 by Eclipse SUMO netgenerate Version 1.6.0
<configuration xmlns:xsi="http://www.w3.org/2001/XMLSchema-instance" xsi:noNamespaceSchemaLocation="http://sumo.dlr.de/xsd/netgenerateConfiguration.xsd">

    <grid_network>
        <grid value="true"/>
        <grid.number value="10"/>
        <grid.length value="100"/>
    </grid_network>

    <output>
        <output-file value="grid_pedestrians.net.xml"/>
    </output>

    <pedestrian>
        <sidewalks.guess value="true"/>
        <crossings.guess value="true"/>
    </pedestrian>

</configuration>
-->

<net version="1.6" junctionCornerDetail="5" walkingareas="true" limitTurnSpeed="5.50" xmlns:xsi="http://www.w3.org/2001/XMLSchema-instance" xsi:noNamespaceSchemaLocation="http://sumo.dlr.de/xsd/net_file.xsd">

    <location netOffset="0.00,0.00" convBoundary="0.00,0.00,900.00,900.00" origBoundary="0.00,0.00,900.00,900.00" projParameter="!"/>

    <edge id=":A0_0" function="internal">
        <lane id=":A0_0_0" index="0" disallow="pedestrian" speed="7.10" length="10.97" shape="-1.60,5.20 -1.18,2.22 0.10,0.10 2.22,-1.17 5.20,-1.60"/>
    </edge>
    <edge id=":A0_1" function="internal">
        <lane id=":A0_1_0" index="0" disallow="pedestrian" speed="5.37" length="5.81" shape="5.20,1.60 3.62,1.82 2.50,2.50 1.82,3.62 1.60,5.20"/>
    </edge>
    <edge id=":A0_c0" function="crossing" crossingEdges="A0A1 A1A0">
        <lane id=":A0_c0_0" index="0" allow="pedestrian" speed="1.00" length="6.40" width="4.00" shape="3.20,3.20 -3.20,3.20"/>
    </edge>
    <edge id=":A0_w0" function="walkingarea">
        <lane id=":A0_w0_0" index="0" allow="pedestrian" speed="1.00" length="8.91" width="4.00" shape="5.20,-3.20 5.20,-5.20 -5.20,5.20 -3.20,5.20 -2.97,2.63 -2.27,0.53 -1.10,-1.10 0.53,-2.27 2.63,-2.97"/>
    </edge>
    <edge id=":A0_w1" function="walkingarea">
        <lane id=":A0_w1_0" index="0" allow="pedestrian" speed="1.00" length="1.96" width="4.00" shape="3.20,5.20 5.20,5.20 5.20,5.20 5.20,3.20 4.59,3.26 4.09,3.42 3.70,3.70 3.42,4.09 3.26,4.59"/>
    </edge>
    <edge id=":A1_0" function="internal">
        <lane id=":A1_0_0" index="0" disallow="pedestrian" speed="13.89" length="14.40" shape="-1.60,107.20 -1.60,92.80"/>
    </edge>
    <edge id=":A1_1" function="internal">
        <lane id=":A1_1_0" index="0" disallow="pedestrian" speed="8.00" length="5.93" shape="-1.60,107.20 -1.05,103.35 0.00,101.60"/>
    </edge>
    <edge id=":A1_2" function="internal">
        <lane id=":A1_2_0" index="0" disallow="pedestrian" speed="3.65" length="2.34" shape="-1.60,107.20 -0.80,106.00 0.00,105.60"/>
    </edge>
    <edge id=":A1_9" function="internal">
        <lane id=":A1_9_0" index="0" disallow="pedestrian" speed="8.00" length="8.26" shape="0.00,101.60 0.60,100.60 3.35,98.95 7.20,98.40"/>
    </edge>
    <edge id=":A1_10" function="internal">
        <lane id=":A1_10_0" index="0" disallow="pedestrian" speed="3.65" length="2.34" shape="0.00,105.60 0.80,106.00 1.60,107.20"/>
    </edge>
    <edge id=":A1_3" function="internal">
        <lane id=":A1_3_0" index="0" disallow="pedestrian" speed="6.51" length="9.03" shape="7.20,101.60 4.75,101.95 3.00,103.00 1.95,104.75 1.60,107.20"/>
    </edge>
    <edge id=":A1_4" function="internal">
        <lane id=":A1_4_0" index="0" disallow="pedestrian" speed="8.00" length="14.19" shape="7.20,101.60 3.35,101.05 0.60,99.40 -1.05,96.65 -1.60,92.80"/>
    </edge>
    <edge id=":A1_5" function="internal">
        <lane id=":A1_5_0" index="0" disallow="pedestrian" speed="3.65" length="4.67" shape="7.20,101.60 6.00,100.80 5.60,100.00 6.00,99.20 7.20,98.40"/>
    </edge>
    <edge id=":A1_6" function="internal">
        <lane id=":A1_6_0" index="0" disallow="pedestrian" speed="6.51" length="4.75" shape="1.60,92.80 1.95,95.25 3.00,97.00 3.20,97.12"/>
    </edge>
    <edge id=":A1_7" function="internal">
        <lane id=":A1_7_0" index="0" disallow="pedestrian" speed="13.89" length="14.40" shape="1.60,92.80 1.60,107.20"/>
    </edge>
    <edge id=":A1_8" function="internal">
        <lane id=":A1_8_0" index="0" disallow="pedestrian" speed="3.65" length="2.34" shape="1.60,92.80 0.80,94.00 0.00,94.40"/>
    </edge>
    <edge id=":A1_11" function="internal">
        <lane id=":A1_11_0" index="0" disallow="pedestrian" speed="6.51" length="4.28" shape="3.20,97.12 4.75,98.05 7.20,98.40"/>
    </edge>
    <edge id=":A1_12" function="internal">
        <lane id=":A1_12_0" index="0" disallow="pedestrian" speed="3.65" length="2.34" shape="0.00,94.40 -0.80,94.00 -1.60,92.80"/>
    </edge>
    <edge id=":A1_c0" function="crossing" crossingEdges="A1A2 A2A1">
        <lane id=":A1_c0_0" index="0" allow="pedestrian" speed="1.00" length="6.40" width="4.00" shape="3.20,105.20 -3.20,105.20"/>
    </edge>
    <edge id=":A1_c1" function="crossing" crossingEdges="A1B1 B1A1">
        <lane id=":A1_c1_0" index="0" allow="pedestrian" speed="1.00" length="6.40" width="4.00" shape="5.20,96.80 5.20,103.20"/>
    </edge>
    <edge id=":A1_c2" function="crossing" crossingEdges="A1A0 A0A1">
        <lane id=":A1_c2_0" index="0" allow="pedestrian" speed="1.00" length="6.40" width="4.00" shape="-3.20,94.80 3.20,94.80"/>
    </edge>
    <edge id=":A1_w0" function="walkingarea">
        <lane id=":A1_w0_0" index="0" allow="pedestrian" speed="1.00" length="9.03" width="4.00" shape="-3.20,96.80 -3.20,92.80 -5.20,92.80 -5.20,107.20 -3.20,107.20 -3.20,103.20"/>
    </edge>
    <edge id=":A1_w1" function="walkingarea">
        <lane id=":A1_w1_0" index="0" allow="pedestrian" speed="1.00" length="3.30" width="4.00" shape="3.20,107.20 5.20,107.20 7.20,105.20 7.20,103.20 5.98,103.31 4.98,103.64 4.20,104.20 3.64,104.98 3.31,105.98"/>
    </edge>
    <edge id=":A1_w2" function="walkingarea">
        <lane id=":A1_w2_0" index="0" allow="pedestrian" speed="1.00" length="3.30" width="4.00" shape="7.20,96.80 7.20,94.80 5.20,92.80 3.20,92.80 3.31,94.02 3.64,95.02 4.20,95.80 4.98,96.36 5.98,96.69"/>
    </edge>
    <edge id=":A2_0" function="internal">
        <lane id=":A2_0_0" index="0" disallow="pedestrian" speed="13.89" length="14.40" shape="-1.60,207.20 -1.60,192.80"/>
    </edge>
    <edge id=":A2_1" function="internal">
        <lane id=":A2_1_0" index="0" disallow="pedestrian" speed="8.00" length="5.93" shape="-1.60,207.20 -1.05,203.35 -0.00,201.60"/>
    </edge>
    <edge id=":A2_2" function="internal">
        <lane id=":A2_2_0" index="0" disallow="pedestrian" speed="3.65" length="2.34" shape="-1.60,207.20 -0.80,206.00 0.00,205.60"/>
    </edge>
    <edge id=":A2_9" function="internal">
        <lane id=":A2_9_0" index="0" disallow="pedestrian" speed="8.00" length="8.26" shape="-0.00,201.60 0.60,200.60 3.35,198.95 7.20,198.40"/>
    </edge>
    <edge id=":A2_10" function="internal">
        <lane id=":A2_10_0" index="0" disallow="pedestrian" speed="3.65" length="2.34" shape="0.00,205.60 0.80,206.00 1.60,207.20"/>
    </edge>
    <edge id=":A2_3" function="internal">
        <lane id=":A2_3_0" index="0" disallow="pedestrian" speed="6.51" length="9.03" shape="7.20,201.60 4.75,201.95 3.00,203.00 1.95,204.75 1.60,207.20"/>
    </edge>
    <edge id=":A2_4" function="internal">
        <lane id=":A2_4_0" index="0" disallow="pedestrian" speed="8.00" length="14.19" shape="7.20,201.60 3.35,201.05 0.60,199.40 -1.05,196.65 -1.60,192.80"/>
    </edge>
    <edge id=":A2_5" function="internal">
        <lane id=":A2_5_0" index="0" disallow="pedestrian" speed="3.65" length="4.67" shape="7.20,201.60 6.00,200.80 5.60,200.00 6.00,199.20 7.20,198.40"/>
    </edge>
    <edge id=":A2_6" function="internal">
        <lane id=":A2_6_0" index="0" disallow="pedestrian" speed="6.51" length="4.75" shape="1.60,192.80 1.95,195.25 3.00,197.00 3.20,197.12"/>
    </edge>
    <edge id=":A2_7" function="internal">
        <lane id=":A2_7_0" index="0" disallow="pedestrian" speed="13.89" length="14.40" shape="1.60,192.80 1.60,207.20"/>
    </edge>
    <edge id=":A2_8" function="internal">
        <lane id=":A2_8_0" index="0" disallow="pedestrian" speed="3.65" length="2.34" shape="1.60,192.80 0.80,194.00 0.00,194.40"/>
    </edge>
    <edge id=":A2_11" function="internal">
        <lane id=":A2_11_0" index="0" disallow="pedestrian" speed="6.51" length="4.28" shape="3.20,197.12 4.75,198.05 7.20,198.40"/>
    </edge>
    <edge id=":A2_12" function="internal">
        <lane id=":A2_12_0" index="0" disallow="pedestrian" speed="3.65" length="2.34" shape="0.00,194.40 -0.80,194.00 -1.60,192.80"/>
    </edge>
    <edge id=":A2_c0" function="crossing" crossingEdges="A2A3 A3A2">
        <lane id=":A2_c0_0" index="0" allow="pedestrian" speed="1.00" length="6.40" width="4.00" shape="3.20,205.20 -3.20,205.20"/>
    </edge>
    <edge id=":A2_c1" function="crossing" crossingEdges="A2B2 B2A2">
        <lane id=":A2_c1_0" index="0" allow="pedestrian" speed="1.00" length="6.40" width="4.00" shape="5.20,196.80 5.20,203.20"/>
    </edge>
    <edge id=":A2_c2" function="crossing" crossingEdges="A2A1 A1A2">
        <lane id=":A2_c2_0" index="0" allow="pedestrian" speed="1.00" length="6.40" width="4.00" shape="-3.20,194.80 3.20,194.80"/>
    </edge>
    <edge id=":A2_w0" function="walkingarea">
        <lane id=":A2_w0_0" index="0" allow="pedestrian" speed="1.00" length="9.03" width="4.00" shape="-3.20,196.80 -3.20,192.80 -5.20,192.80 -5.20,207.20 -3.20,207.20 -3.20,203.20"/>
    </edge>
    <edge id=":A2_w1" function="walkingarea">
        <lane id=":A2_w1_0" index="0" allow="pedestrian" speed="1.00" length="3.30" width="4.00" shape="3.20,207.20 5.20,207.20 7.20,205.20 7.20,203.20 5.98,203.31 4.98,203.64 4.20,204.20 3.64,204.98 3.31,205.98"/>
    </edge>
    <edge id=":A2_w2" function="walkingarea">
        <lane id=":A2_w2_0" index="0" allow="pedestrian" speed="1.00" length="3.30" width="4.00" shape="7.20,196.80 7.20,194.80 5.20,192.80 3.20,192.80 3.31,194.02 3.64,195.02 4.20,195.80 4.98,196.36 5.98,196.69"/>
    </edge>
    <edge id=":A3_0" function="internal">
        <lane id=":A3_0_0" index="0" disallow="pedestrian" speed="13.89" length="14.40" shape="-1.60,307.20 -1.60,292.80"/>
    </edge>
    <edge id=":A3_1" function="internal">
        <lane id=":A3_1_0" index="0" disallow="pedestrian" speed="8.00" length="5.93" shape="-1.60,307.20 -1.05,303.35 -0.00,301.60"/>
    </edge>
    <edge id=":A3_2" function="internal">
        <lane id=":A3_2_0" index="0" disallow="pedestrian" speed="3.65" length="2.34" shape="-1.60,307.20 -0.80,306.00 0.00,305.60"/>
    </edge>
    <edge id=":A3_9" function="internal">
        <lane id=":A3_9_0" index="0" disallow="pedestrian" speed="8.00" length="8.26" shape="-0.00,301.60 0.60,300.60 3.35,298.95 7.20,298.40"/>
    </edge>
    <edge id=":A3_10" function="internal">
        <lane id=":A3_10_0" index="0" disallow="pedestrian" speed="3.65" length="2.34" shape="0.00,305.60 0.80,306.00 1.60,307.20"/>
    </edge>
    <edge id=":A3_3" function="internal">
        <lane id=":A3_3_0" index="0" disallow="pedestrian" speed="6.51" length="9.03" shape="7.20,301.60 4.75,301.95 3.00,303.00 1.95,304.75 1.60,307.20"/>
    </edge>
    <edge id=":A3_4" function="internal">
        <lane id=":A3_4_0" index="0" disallow="pedestrian" speed="8.00" length="14.19" shape="7.20,301.60 3.35,301.05 0.60,299.40 -1.05,296.65 -1.60,292.80"/>
    </edge>
    <edge id=":A3_5" function="internal">
        <lane id=":A3_5_0" index="0" disallow="pedestrian" speed="3.65" length="4.67" shape="7.20,301.60 6.00,300.80 5.60,300.00 6.00,299.20 7.20,298.40"/>
    </edge>
    <edge id=":A3_6" function="internal">
        <lane id=":A3_6_0" index="0" disallow="pedestrian" speed="6.51" length="4.75" shape="1.60,292.80 1.95,295.25 3.00,297.00 3.20,297.12"/>
    </edge>
    <edge id=":A3_7" function="internal">
        <lane id=":A3_7_0" index="0" disallow="pedestrian" speed="13.89" length="14.40" shape="1.60,292.80 1.60,307.20"/>
    </edge>
    <edge id=":A3_8" function="internal">
        <lane id=":A3_8_0" index="0" disallow="pedestrian" speed="3.65" length="2.34" shape="1.60,292.80 0.80,294.00 0.00,294.40"/>
    </edge>
    <edge id=":A3_11" function="internal">
        <lane id=":A3_11_0" index="0" disallow="pedestrian" speed="6.51" length="4.28" shape="3.20,297.12 4.75,298.05 7.20,298.40"/>
    </edge>
    <edge id=":A3_12" function="internal">
        <lane id=":A3_12_0" index="0" disallow="pedestrian" speed="3.65" length="2.34" shape="0.00,294.40 -0.80,294.00 -1.60,292.80"/>
    </edge>
    <edge id=":A3_c0" function="crossing" crossingEdges="A3A4 A4A3">
        <lane id=":A3_c0_0" index="0" allow="pedestrian" speed="1.00" length="6.40" width="4.00" shape="3.20,305.20 -3.20,305.20"/>
    </edge>
    <edge id=":A3_c1" function="crossing" crossingEdges="A3B3 B3A3">
        <lane id=":A3_c1_0" index="0" allow="pedestrian" speed="1.00" length="6.40" width="4.00" shape="5.20,296.80 5.20,303.20"/>
    </edge>
    <edge id=":A3_c2" function="crossing" crossingEdges="A3A2 A2A3">
        <lane id=":A3_c2_0" index="0" allow="pedestrian" speed="1.00" length="6.40" width="4.00" shape="-3.20,294.80 3.20,294.80"/>
    </edge>
    <edge id=":A3_w0" function="walkingarea">
        <lane id=":A3_w0_0" index="0" allow="pedestrian" speed="1.00" length="9.03" width="4.00" shape="-3.20,296.80 -3.20,292.80 -5.20,292.80 -5.20,307.20 -3.20,307.20 -3.20,303.20"/>
    </edge>
    <edge id=":A3_w1" function="walkingarea">
        <lane id=":A3_w1_0" index="0" allow="pedestrian" speed="1.00" length="3.30" width="4.00" shape="3.20,307.20 5.20,307.20 7.20,305.20 7.20,303.20 5.98,303.31 4.98,303.64 4.20,304.20 3.64,304.98 3.31,305.98"/>
    </edge>
    <edge id=":A3_w2" function="walkingarea">
        <lane id=":A3_w2_0" index="0" allow="pedestrian" speed="1.00" length="3.30" width="4.00" shape="7.20,296.80 7.20,294.80 5.20,292.80 3.20,292.80 3.31,294.02 3.64,295.02 4.20,295.80 4.98,296.36 5.98,296.69"/>
    </edge>
    <edge id=":A4_0" function="internal">
        <lane id=":A4_0_0" index="0" disallow="pedestrian" speed="13.89" length="14.40" shape="-1.60,407.20 -1.60,392.80"/>
    </edge>
    <edge id=":A4_1" function="internal">
        <lane id=":A4_1_0" index="0" disallow="pedestrian" speed="8.00" length="5.93" shape="-1.60,407.20 -1.05,403.35 0.00,401.60"/>
    </edge>
    <edge id=":A4_2" function="internal">
        <lane id=":A4_2_0" index="0" disallow="pedestrian" speed="3.65" length="2.34" shape="-1.60,407.20 -0.80,406.00 0.00,405.60"/>
    </edge>
    <edge id=":A4_9" function="internal">
        <lane id=":A4_9_0" index="0" disallow="pedestrian" speed="8.00" length="8.26" shape="0.00,401.60 0.60,400.60 3.35,398.95 7.20,398.40"/>
    </edge>
    <edge id=":A4_10" function="internal">
        <lane id=":A4_10_0" index="0" disallow="pedestrian" speed="3.65" length="2.34" shape="0.00,405.60 0.80,406.00 1.60,407.20"/>
    </edge>
    <edge id=":A4_3" function="internal">
        <lane id=":A4_3_0" index="0" disallow="pedestrian" speed="6.51" length="9.03" shape="7.20,401.60 4.75,401.95 3.00,403.00 1.95,404.75 1.60,407.20"/>
    </edge>
    <edge id=":A4_4" function="internal">
        <lane id=":A4_4_0" index="0" disallow="pedestrian" speed="8.00" length="14.19" shape="7.20,401.60 3.35,401.05 0.60,399.40 -1.05,396.65 -1.60,392.80"/>
    </edge>
    <edge id=":A4_5" function="internal">
        <lane id=":A4_5_0" index="0" disallow="pedestrian" speed="3.65" length="4.67" shape="7.20,401.60 6.00,400.80 5.60,400.00 6.00,399.20 7.20,398.40"/>
    </edge>
    <edge id=":A4_6" function="internal">
        <lane id=":A4_6_0" index="0" disallow="pedestrian" speed="6.51" length="4.75" shape="1.60,392.80 1.95,395.25 3.00,397.00 3.20,397.12"/>
    </edge>
    <edge id=":A4_7" function="internal">
        <lane id=":A4_7_0" index="0" disallow="pedestrian" speed="13.89" length="14.40" shape="1.60,392.80 1.60,407.20"/>
    </edge>
    <edge id=":A4_8" function="internal">
        <lane id=":A4_8_0" index="0" disallow="pedestrian" speed="3.65" length="2.34" shape="1.60,392.80 0.80,394.00 0.00,394.40"/>
    </edge>
    <edge id=":A4_11" function="internal">
        <lane id=":A4_11_0" index="0" disallow="pedestrian" speed="6.51" length="4.28" shape="3.20,397.12 4.75,398.05 7.20,398.40"/>
    </edge>
    <edge id=":A4_12" function="internal">
        <lane id=":A4_12_0" index="0" disallow="pedestrian" speed="3.65" length="2.34" shape="0.00,394.40 -0.80,394.00 -1.60,392.80"/>
    </edge>
    <edge id=":A4_c0" function="crossing" crossingEdges="A4A5 A5A4">
        <lane id=":A4_c0_0" index="0" allow="pedestrian" speed="1.00" length="6.40" width="4.00" shape="3.20,405.20 -3.20,405.20"/>
    </edge>
    <edge id=":A4_c1" function="crossing" crossingEdges="A4B4 B4A4">
        <lane id=":A4_c1_0" index="0" allow="pedestrian" speed="1.00" length="6.40" width="4.00" shape="5.20,396.80 5.20,403.20"/>
    </edge>
    <edge id=":A4_c2" function="crossing" crossingEdges="A4A3 A3A4">
        <lane id=":A4_c2_0" index="0" allow="pedestrian" speed="1.00" length="6.40" width="4.00" shape="-3.20,394.80 3.20,394.80"/>
    </edge>
    <edge id=":A4_w0" function="walkingarea">
        <lane id=":A4_w0_0" index="0" allow="pedestrian" speed="1.00" length="9.03" width="4.00" shape="-3.20,396.80 -3.20,392.80 -5.20,392.80 -5.20,407.20 -3.20,407.20 -3.20,403.20"/>
    </edge>
    <edge id=":A4_w1" function="walkingarea">
        <lane id=":A4_w1_0" index="0" allow="pedestrian" speed="1.00" length="3.30" width="4.00" shape="3.20,407.20 5.20,407.20 7.20,405.20 7.20,403.20 5.98,403.31 4.98,403.64 4.20,404.20 3.64,404.98 3.31,405.98"/>
    </edge>
    <edge id=":A4_w2" function="walkingarea">
        <lane id=":A4_w2_0" index="0" allow="pedestrian" speed="1.00" length="3.30" width="4.00" shape="7.20,396.80 7.20,394.80 5.20,392.80 3.20,392.80 3.31,394.02 3.64,395.02 4.20,395.80 4.98,396.36 5.98,396.69"/>
    </edge>
    <edge id=":A5_0" function="internal">
        <lane id=":A5_0_0" index="0" disallow="pedestrian" speed="13.89" length="14.40" shape="-1.60,507.20 -1.60,492.80"/>
    </edge>
    <edge id=":A5_1" function="internal">
        <lane id=":A5_1_0" index="0" disallow="pedestrian" speed="8.00" length="5.93" shape="-1.60,507.20 -1.05,503.35 -0.00,501.60"/>
    </edge>
    <edge id=":A5_2" function="internal">
        <lane id=":A5_2_0" index="0" disallow="pedestrian" speed="3.65" length="2.34" shape="-1.60,507.20 -0.80,506.00 0.00,505.60"/>
    </edge>
    <edge id=":A5_9" function="internal">
        <lane id=":A5_9_0" index="0" disallow="pedestrian" speed="8.00" length="8.26" shape="-0.00,501.60 0.60,500.60 3.35,498.95 7.20,498.40"/>
    </edge>
    <edge id=":A5_10" function="internal">
        <lane id=":A5_10_0" index="0" disallow="pedestrian" speed="3.65" length="2.34" shape="0.00,505.60 0.80,506.00 1.60,507.20"/>
    </edge>
    <edge id=":A5_3" function="internal">
        <lane id=":A5_3_0" index="0" disallow="pedestrian" speed="6.51" length="9.03" shape="7.20,501.60 4.75,501.95 3.00,503.00 1.95,504.75 1.60,507.20"/>
    </edge>
    <edge id=":A5_4" function="internal">
        <lane id=":A5_4_0" index="0" disallow="pedestrian" speed="8.00" length="14.19" shape="7.20,501.60 3.35,501.05 0.60,499.40 -1.05,496.65 -1.60,492.80"/>
    </edge>
    <edge id=":A5_5" function="internal">
        <lane id=":A5_5_0" index="0" disallow="pedestrian" speed="3.65" length="4.67" shape="7.20,501.60 6.00,500.80 5.60,500.00 6.00,499.20 7.20,498.40"/>
    </edge>
    <edge id=":A5_6" function="internal">
        <lane id=":A5_6_0" index="0" disallow="pedestrian" speed="6.51" length="4.75" shape="1.60,492.80 1.95,495.25 3.00,497.00 3.20,497.12"/>
    </edge>
    <edge id=":A5_7" function="internal">
        <lane id=":A5_7_0" index="0" disallow="pedestrian" speed="13.89" length="14.40" shape="1.60,492.80 1.60,507.20"/>
    </edge>
    <edge id=":A5_8" function="internal">
        <lane id=":A5_8_0" index="0" disallow="pedestrian" speed="3.65" length="2.34" shape="1.60,492.80 0.80,494.00 0.00,494.40"/>
    </edge>
    <edge id=":A5_11" function="internal">
        <lane id=":A5_11_0" index="0" disallow="pedestrian" speed="6.51" length="4.28" shape="3.20,497.12 4.75,498.05 7.20,498.40"/>
    </edge>
    <edge id=":A5_12" function="internal">
        <lane id=":A5_12_0" index="0" disallow="pedestrian" speed="3.65" length="2.34" shape="0.00,494.40 -0.80,494.00 -1.60,492.80"/>
    </edge>
    <edge id=":A5_c0" function="crossing" crossingEdges="A5A6 A6A5">
        <lane id=":A5_c0_0" index="0" allow="pedestrian" speed="1.00" length="6.40" width="4.00" shape="3.20,505.20 -3.20,505.20"/>
    </edge>
    <edge id=":A5_c1" function="crossing" crossingEdges="A5B5 B5A5">
        <lane id=":A5_c1_0" index="0" allow="pedestrian" speed="1.00" length="6.40" width="4.00" shape="5.20,496.80 5.20,503.20"/>
    </edge>
    <edge id=":A5_c2" function="crossing" crossingEdges="A5A4 A4A5">
        <lane id=":A5_c2_0" index="0" allow="pedestrian" speed="1.00" length="6.40" width="4.00" shape="-3.20,494.80 3.20,494.80"/>
    </edge>
    <edge id=":A5_w0" function="walkingarea">
        <lane id=":A5_w0_0" index="0" allow="pedestrian" speed="1.00" length="9.03" width="4.00" shape="-3.20,496.80 -3.20,492.80 -5.20,492.80 -5.20,507.20 -3.20,507.20 -3.20,503.20"/>
    </edge>
    <edge id=":A5_w1" function="walkingarea">
        <lane id=":A5_w1_0" index="0" allow="pedestrian" speed="1.00" length="3.30" width="4.00" shape="3.20,507.20 5.20,507.20 7.20,505.20 7.20,503.20 5.98,503.31 4.98,503.64 4.20,504.20 3.64,504.98 3.31,505.98"/>
    </edge>
    <edge id=":A5_w2" function="walkingarea">
        <lane id=":A5_w2_0" index="0" allow="pedestrian" speed="1.00" length="3.30" width="4.00" shape="7.20,496.80 7.20,494.80 5.20,492.80 3.20,492.80 3.31,494.02 3.64,495.02 4.20,495.80 4.98,496.36 5.98,496.69"/>
    </edge>
    <edge id=":A6_0" function="internal">
        <lane id=":A6_0_0" index="0" disallow="pedestrian" speed="13.89" length="14.40" shape="-1.60,607.20 -1.60,592.80"/>
    </edge>
    <edge id=":A6_1" function="internal">
        <lane id=":A6_1_0" index="0" disallow="pedestrian" speed="8.00" length="5.93" shape="-1.60,607.20 -1.05,603.35 -0.00,601.60"/>
    </edge>
    <edge id=":A6_2" function="internal">
        <lane id=":A6_2_0" index="0" disallow="pedestrian" speed="3.65" length="2.34" shape="-1.60,607.20 -0.80,606.00 0.00,605.60"/>
    </edge>
    <edge id=":A6_9" function="internal">
        <lane id=":A6_9_0" index="0" disallow="pedestrian" speed="8.00" length="8.26" shape="-0.00,601.60 0.60,600.60 3.35,598.95 7.20,598.40"/>
    </edge>
    <edge id=":A6_10" function="internal">
        <lane id=":A6_10_0" index="0" disallow="pedestrian" speed="3.65" length="2.34" shape="0.00,605.60 0.80,606.00 1.60,607.20"/>
    </edge>
    <edge id=":A6_3" function="internal">
        <lane id=":A6_3_0" index="0" disallow="pedestrian" speed="6.51" length="9.03" shape="7.20,601.60 4.75,601.95 3.00,603.00 1.95,604.75 1.60,607.20"/>
    </edge>
    <edge id=":A6_4" function="internal">
        <lane id=":A6_4_0" index="0" disallow="pedestrian" speed="8.00" length="14.19" shape="7.20,601.60 3.35,601.05 0.60,599.40 -1.05,596.65 -1.60,592.80"/>
    </edge>
    <edge id=":A6_5" function="internal">
        <lane id=":A6_5_0" index="0" disallow="pedestrian" speed="3.65" length="4.67" shape="7.20,601.60 6.00,600.80 5.60,600.00 6.00,599.20 7.20,598.40"/>
    </edge>
    <edge id=":A6_6" function="internal">
        <lane id=":A6_6_0" index="0" disallow="pedestrian" speed="6.51" length="4.75" shape="1.60,592.80 1.95,595.25 3.00,597.00 3.20,597.12"/>
    </edge>
    <edge id=":A6_7" function="internal">
        <lane id=":A6_7_0" index="0" disallow="pedestrian" speed="13.89" length="14.40" shape="1.60,592.80 1.60,607.20"/>
    </edge>
    <edge id=":A6_8" function="internal">
        <lane id=":A6_8_0" index="0" disallow="pedestrian" speed="3.65" length="2.34" shape="1.60,592.80 0.80,594.00 0.00,594.40"/>
    </edge>
    <edge id=":A6_11" function="internal">
        <lane id=":A6_11_0" index="0" disallow="pedestrian" speed="6.51" length="4.28" shape="3.20,597.12 4.75,598.05 7.20,598.40"/>
    </edge>
    <edge id=":A6_12" function="internal">
        <lane id=":A6_12_0" index="0" disallow="pedestrian" speed="3.65" length="2.34" shape="0.00,594.40 -0.80,594.00 -1.60,592.80"/>
    </edge>
    <edge id=":A6_c0" function="crossing" crossingEdges="A6A7 A7A6">
        <lane id=":A6_c0_0" index="0" allow="pedestrian" speed="1.00" length="6.40" width="4.00" shape="3.20,605.20 -3.20,605.20"/>
    </edge>
    <edge id=":A6_c1" function="crossing" crossingEdges="A6B6 B6A6">
        <lane id=":A6_c1_0" index="0" allow="pedestrian" speed="1.00" length="6.40" width="4.00" shape="5.20,596.80 5.20,603.20"/>
    </edge>
    <edge id=":A6_c2" function="crossing" crossingEdges="A6A5 A5A6">
        <lane id=":A6_c2_0" index="0" allow="pedestrian" speed="1.00" length="6.40" width="4.00" shape="-3.20,594.80 3.20,594.80"/>
    </edge>
    <edge id=":A6_w0" function="walkingarea">
        <lane id=":A6_w0_0" index="0" allow="pedestrian" speed="1.00" length="9.03" width="4.00" shape="-3.20,596.80 -3.20,592.80 -5.20,592.80 -5.20,607.20 -3.20,607.20 -3.20,603.20"/>
    </edge>
    <edge id=":A6_w1" function="walkingarea">
        <lane id=":A6_w1_0" index="0" allow="pedestrian" speed="1.00" length="3.30" width="4.00" shape="3.20,607.20 5.20,607.20 7.20,605.20 7.20,603.20 5.98,603.31 4.98,603.64 4.20,604.20 3.64,604.98 3.31,605.98"/>
    </edge>
    <edge id=":A6_w2" function="walkingarea">
        <lane id=":A6_w2_0" index="0" allow="pedestrian" speed="1.00" length="3.30" width="4.00" shape="7.20,596.80 7.20,594.80 5.20,592.80 3.20,592.80 3.31,594.02 3.64,595.02 4.20,595.80 4.98,596.36 5.98,596.69"/>
    </edge>
    <edge id=":A7_0" function="internal">
        <lane id=":A7_0_0" index="0" disallow="pedestrian" speed="13.89" length="14.40" shape="-1.60,707.20 -1.60,692.80"/>
    </edge>
    <edge id=":A7_1" function="internal">
        <lane id=":A7_1_0" index="0" disallow="pedestrian" speed="8.00" length="5.93" shape="-1.60,707.20 -1.05,703.35 -0.00,701.60"/>
    </edge>
    <edge id=":A7_2" function="internal">
        <lane id=":A7_2_0" index="0" disallow="pedestrian" speed="3.65" length="2.34" shape="-1.60,707.20 -0.80,706.00 0.00,705.60"/>
    </edge>
    <edge id=":A7_9" function="internal">
        <lane id=":A7_9_0" index="0" disallow="pedestrian" speed="8.00" length="8.26" shape="-0.00,701.60 0.60,700.60 3.35,698.95 7.20,698.40"/>
    </edge>
    <edge id=":A7_10" function="internal">
        <lane id=":A7_10_0" index="0" disallow="pedestrian" speed="3.65" length="2.34" shape="0.00,705.60 0.80,706.00 1.60,707.20"/>
    </edge>
    <edge id=":A7_3" function="internal">
        <lane id=":A7_3_0" index="0" disallow="pedestrian" speed="6.51" length="9.03" shape="7.20,701.60 4.75,701.95 3.00,703.00 1.95,704.75 1.60,707.20"/>
    </edge>
    <edge id=":A7_4" function="internal">
        <lane id=":A7_4_0" index="0" disallow="pedestrian" speed="8.00" length="14.19" shape="7.20,701.60 3.35,701.05 0.60,699.40 -1.05,696.65 -1.60,692.80"/>
    </edge>
    <edge id=":A7_5" function="internal">
        <lane id=":A7_5_0" index="0" disallow="pedestrian" speed="3.65" length="4.67" shape="7.20,701.60 6.00,700.80 5.60,700.00 6.00,699.20 7.20,698.40"/>
    </edge>
    <edge id=":A7_6" function="internal">
        <lane id=":A7_6_0" index="0" disallow="pedestrian" speed="6.51" length="4.75" shape="1.60,692.80 1.95,695.25 3.00,697.00 3.20,697.12"/>
    </edge>
    <edge id=":A7_7" function="internal">
        <lane id=":A7_7_0" index="0" disallow="pedestrian" speed="13.89" length="14.40" shape="1.60,692.80 1.60,707.20"/>
    </edge>
    <edge id=":A7_8" function="internal">
        <lane id=":A7_8_0" index="0" disallow="pedestrian" speed="3.65" length="2.34" shape="1.60,692.80 0.80,694.00 0.00,694.40"/>
    </edge>
    <edge id=":A7_11" function="internal">
        <lane id=":A7_11_0" index="0" disallow="pedestrian" speed="6.51" length="4.28" shape="3.20,697.12 4.75,698.05 7.20,698.40"/>
    </edge>
    <edge id=":A7_12" function="internal">
        <lane id=":A7_12_0" index="0" disallow="pedestrian" speed="3.65" length="2.34" shape="0.00,694.40 -0.80,694.00 -1.60,692.80"/>
    </edge>
    <edge id=":A7_c0" function="crossing" crossingEdges="A7A8 A8A7">
        <lane id=":A7_c0_0" index="0" allow="pedestrian" speed="1.00" length="6.40" width="4.00" shape="3.20,705.20 -3.20,705.20"/>
    </edge>
    <edge id=":A7_c1" function="crossing" crossingEdges="A7B7 B7A7">
        <lane id=":A7_c1_0" index="0" allow="pedestrian" speed="1.00" length="6.40" width="4.00" shape="5.20,696.80 5.20,703.20"/>
    </edge>
    <edge id=":A7_c2" function="crossing" crossingEdges="A7A6 A6A7">
        <lane id=":A7_c2_0" index="0" allow="pedestrian" speed="1.00" length="6.40" width="4.00" shape="-3.20,694.80 3.20,694.80"/>
    </edge>
    <edge id=":A7_w0" function="walkingarea">
        <lane id=":A7_w0_0" index="0" allow="pedestrian" speed="1.00" length="9.03" width="4.00" shape="-3.20,696.80 -3.20,692.80 -5.20,692.80 -5.20,707.20 -3.20,707.20 -3.20,703.20"/>
    </edge>
    <edge id=":A7_w1" function="walkingarea">
        <lane id=":A7_w1_0" index="0" allow="pedestrian" speed="1.00" length="3.30" width="4.00" shape="3.20,707.20 5.20,707.20 7.20,705.20 7.20,703.20 5.98,703.31 4.98,703.64 4.20,704.20 3.64,704.98 3.31,705.98"/>
    </edge>
    <edge id=":A7_w2" function="walkingarea">
        <lane id=":A7_w2_0" index="0" allow="pedestrian" speed="1.00" length="3.30" width="4.00" shape="7.20,696.80 7.20,694.80 5.20,692.80 3.20,692.80 3.31,694.02 3.64,695.02 4.20,695.80 4.98,696.36 5.98,696.69"/>
    </edge>
    <edge id=":A8_0" function="internal">
        <lane id=":A8_0_0" index="0" disallow="pedestrian" speed="13.89" length="14.40" shape="-1.60,807.20 -1.60,792.80"/>
    </edge>
    <edge id=":A8_1" function="internal">