<?xml version="1.0" encoding="UTF-8"?>
<!-- generated on 2021-11-25 13:06:30.880505 by $Id$ v1_10_0+0000-83496a5972
  options: -n .\grid_pedestrians.net.xml -b 0 -e 1 -p 0.01 -o grid.rou.xml
-->
<routes xmlns:xsi="http://www.w3.org/2001/XMLSchema-instance" xsi:noNamespaceSchemaLocation="http://sumo.dlr.de/xsd/routes_file.xsd">
	<!---->
    <trip id="0" depart="0.00" from="G3G2" to="A3A4"/>  
    <trip id="1" depart="0.01" from="C8C9" to="C3D3"/>
    <trip id="2" depart="0.02" from="H2H3" to="G6G7"/>
    <trip id="3" depart="0.03" from="I7H7" to="B1A1"/>
    <trip id="4" depart="0.04" from="E2E3" to="A3B3"/>
    <trip id="5" depart="0.05" from="C3C2" to="F0F1"/>
    <trip id="6" depart="0.06" from="A3A4" to="C1C2"/>
    <trip id="7" depart="0.07" from="G4F4" to="F4F3"/>
    <trip id="8" depart="0.08" from="C3C4" to="F8F7"/>
    <trip id="9" depart="0.09" from="H9G9" to="A1A0"/>
    <trip id="10" depart="0.10" from="H8I8" to="G8G9"/>
    <trip id="11" depart="0.11" from="D4E4" to="B7A7"/>
    <trip id="12" depart="0.12" from="J4J3" to="D4D5"/>
    <trip id="13" depart="0.13" from="B1B2" to="B1C1"/>
    <trip id="14" depart="0.14" from="I3H3" to="F9G9"/>
    <trip id="15" depart="0.15" from="H8I8" to="H1I1"/>
    <trip id="16" depart="0.16" from="F3F4" to="J6J5"/>
    <trip id="17" depart="0.17" from="D8D7" to="F4G4"/>
    <trip id="18" depart="0.18" from="I1I0" to="G1G0"/>
    <trip id="19" depart="0.19" from="I4I3" to="F7E7"/>
    <trip id="20" depart="0.20" from="G9F9" to="A5B5"/>
    <trip id="21" depart="0.21" from="C4C3" to="D0C0"/>
    <trip id="22" depart="0.22" from="B0A0" to="C4C5"/>
    <trip id="23" depart="0.23" from="B2B1" to="C8D8"/>
    <trip id="24" depart="0.24" from="G2H2" to="D7C7"/>
    <trip id="25" depart="0.25" from="D7D8" to="C2C3"/>
    <trip id="26" depart="0.26" from="C7D7" to="J2I2"/>
    <trip id="27" depart="0.27" from="G4F4" to="G0G1"/>
    <trip id="28" depart="0.28" from="B8B9" to="H1I1"/>
    <trip id="29" depart="0.29" from="B7C7" to="D8D7"/>
    <trip id="30" depart="0.30" from="J8J7" to="G3G2"/>
    <trip id="31" depart="0.31" from="F5F4" to="G7G6"/>
    <trip id="32" depart="0.32" from="I2I3" to="H6G6"/>
    <trip id="33" depart="0.33" from="C4C3" to="A4A3"/>
    <trip id="34" depart="0.34" from="D2D3" to="C7D7"/>
    <trip id="35" depart="0.35" from="C2C3" to="J2J3"/>
    <trip id="36" depart="0.36" from="I5I6" to="D2D3"/>
    <trip id="37" depart="0.37" from="G4G5" to="E0D0"/>
    <trip id="38" depart="0.38" from="I9H9" to="E6D6"/>
    <trip id="39" depart="0.39" from="C7C8" to="C5D5"/>
    <trip id="40" depart="0.40" from="F5G5" to="C7C6"/>
    <trip id="41" depart="0.41" from="F7G7" to="I7I8"/>
    <trip id="42" depart="0.42" from="E0E1" to="C3C2"/>
    <trip id="43" depart="0.43" from="J9J8" to="F1E1"/>
    <trip id="44" depart="0.44" from="B1B0" to="A5B5"/>
    <trip id="45" depart="0.45" from="B3A3" to="G2F2"/>
    <trip id="46" depart="0.46" from="H7H8" to="E2E3"/>
    <trip id="47" depart="0.47" from="A7B7" to="D8D9"/>
    <trip id="48" depart="0.48" from="J9I9" to="F2G2"/>
    <trip id="49" depart="0.49" from="J6I6" to="I4H4"/>
    <trip id="50" depart="0.50" from="A1B1" to="H1G1"/>
    <trip id="51" depart="0.51" from="G7F7" to="F3F4"/>
    <trip id="52" depart="0.52" from="C7D7" to="G3G2"/>
    <trip id="53" depart="0.53" from="B3B2" to="E3F3"/>
    <trip id="54" depart="0.54" from="E5E6" to="J4I4"/>
    <trip id="55" depart="0.55" from="I5I6" to="C7C6"/>
    <trip id="56" depart="0.56" from="F0E0" to="B9B8"/>
    <trip id="57" depart="0.57" from="I8J8" to="I5H5"/>
    <trip id="58" depart="0.58" from="D1C1" to="G3G2"/>
    <trip id="59" depart="0.59" from="G0G1" to="B7A7"/>
    <trip id="60" depart="0.60" from="H4I4" to="F3G3"/>
    <trip id="61" depart="0.61" from="H6H5" to="F2G2"/>
    <trip id="62" depart="0.62" from="A0A1" to="D3D2"/>
    <trip id="63" depart="0.63" from="A2B2" to="J1I1"/>
    <trip id="64" depart="0.64" from="I5J5" to="I1I2"/>
    <trip id="65" depart="0.65" from="D1E1" to="A7A6"/>
    <trip id="66" depart="0.66" from="I5J5" to="J3I3"/>
    <trip id="67" depart="0.67" from="B0C0" to="E8E7"/>
    <trip id="68" depart="0.68" from="A8A9" to="H4H5"/>
    <trip id="69" depart="0.69" from="H5G5" to="B4C4"/>
    <trip id="70" depart="0.70" from="E7E8" to="F4F5"/>
    <trip id="71" depart="0.71" from="C7C8" to="I5I4"/>
    <trip id="72" depart="0.72" from="E2F2" to="C2D2"/>
    <trip id="73" depart="0.73" from="F3G3" to="H1I1"/>
    <trip id="74" depart="0.74" from="C1D1" to="D2D1"/>
    <trip id="75" depart="0.75" from="J9I9" to="G4F4"/>
    <trip id="76" depart="0.76" from="E4D4" to="F1G1"/>
    <trip id="77" depart="0.77" from="B4A4" to="C3D3"/>
    <trip id="78" depart="0.78" from="D4D5" to="F8E8"/>
    <trip id="79" depart="0.79" from="C4C3" to="C3C4"/>
    <trip id="80" depart="0.80" from="A8B8" to="G2G3"/>
    <trip id="81" depart="0.81" from="C4C3" to="I8H8"/>
    <trip id="82" depart="0.82" from="I4H4" to="A8B8"/>
    <trip id="83" depart="0.83" from="C5B5" to="G5H5"/>
    <trip id="84" depart="0.84" from="C3B3" to="B5A5"/>
    <trip id="85" depart="0.85" from="J1J2" to="F6F7"/>
    <trip id="86" depart="0.86" from="E7E6" to="H6I6"/>
    <trip id="87" depart="0.87" from="H8I8" to="C0D0"/>
    <trip id="88" depart="0.88" from="B1C1" to="E3E4"/>
    <trip id="89" depart="0.89" from="E2F2" to="E6F6"/>
    <trip id="90" depart="0.90" from="H1I1" to="G6G5"/>
    <trip id="91" depart="0.91" from="J7J8" to="B2A2"/>
    <trip id="92" depart="0.92" from="E0F0" to="D4E4"/>
    <trip id="93" depart="0.93" from="I4I3" to="C6B6"/>
    <trip id="94" depart="0.94" from="C0D0" to="E5D5"/>
    <trip id="95" depart="0.95" from="E2E3" to="C8D8"/>
    <trip id="96" depart="0.96" from="C6B6" to="J0I0"/>
    <trip id="97" depart="0.97" from="E4E5" to="I4I3"/>
    <trip id="98" depart="0.98" from="F4G4" to="A6A7"/>
    <trip id="99" depart="0.99" from="J9J8" to="I1J1"/>
</routes>
