<?xml version="1.0"?>
<!-- generated on Tue Mar 26 14:51:59 2013 by SUMO duarouter Version 0.16.0
<?xml version="1.0" encoding="UTF-8"?>

<configuration xmlns:xsi="http://www.w3.org/2001/XMLSchema-instance" xsi:noNamespaceSchemaLocation="http://sumo.sf.net/xsd/duarouterConfiguration.xsd">

    <input>
        <net-file value="network.net.xml"/>
        <trip-files value="trips.trips.xml"/>
    </input>

    <output>
        <output-file value="20_17.rou.xml"/>
    </output>

</configuration>
-->
<routes xmlns:xsi="http://www.w3.org/2001/XMLSchema-instance" xsi:nonamespaceschemalocation="http://sumo.sf.net/xsd/routes_file.xsd">
 <vehicle depart="0.00" id="t0">
  <route edges="5/2to4/2 4/2to4/3 4/3to4/4 4/4to4/5 4/5to4/6 4/6to4/7 4/7to4/8 4/8to5/8 5/8to6/8 6/8to7/8 7/8to8/8">
  </route>
 </vehicle>
 <vehicle depart="0.00" id="t1">
  <route edges="9/4to9/5 9/5to8/5 8/5to7/5 7/5to6/5 6/5to5/5 5/5to4/5 4/5to3/5 3/5to3/4 3/4to3/3 3/3to3/2 3/2to3/1 3/1to3/0 3/0to2/0">
  </route>
 </vehicle>
 <vehicle depart="0.00" id="t2">
  <route edges="7/5to6/5 6/5to6/6 6/6to6/7 6/7to6/8 6/8to6/9 6/9to5/9">
  </route>
 </vehicle>
 <vehicle depart="0.00" id="t3">
  <route edges="6/5to6/4 6/4to5/4 5/4to4/4 4/4to3/4 3/4to2/4 2/4to1/4 1/4to1/3 1/3to0/3">
  </route>
 </vehicle>
 <vehicle depart="0.00" id="t4">
  <route edges="0/3to0/4 0/4to0/5 0/5to0/6 0/6to0/7 0/7to0/8 0/8to1/8 1/8to2/8 2/8to3/8 3/8to4/8">
  </route>
 </vehicle>
 <vehicle depart="0.00" id="t5">
  <route edges="7/3to7/2 7/2to6/2 6/2to5/2 5/2to4/2 4/2to3/2 3/2to3/3 3/3to3/4 3/4to3/5 3/5to3/6 3/6to2/6 2/6to2/5">
  </route>
 </vehicle>
 <vehicle depart="0.00" id="t6">
  <route edges="5/0to4/0 4/0to3/0 3/0to3/1 3/1to3/2 3/2to4/2">
  </route>
 </vehicle>
 <vehicle depart="0.00" id="t7">
  <route edges="8/2to9/2 9/2to9/3 9/3to8/3">
  </route>
 </vehicle>
 <vehicle depart="0.00" id="t8">
  <route edges="4/0to5/0 5/0to5/1 5/1to5/2 5/2to5/3 5/3to5/4 5/4to5/5 5/5to5/6 5/6to5/7 5/7to5/8 5/8to5/9 5/9to6/9 6/9to7/9 7/9to8/9 8/9to9/9 9/9to9/8">
  </route>
 </vehicle>
 <vehicle depart="0.00" id="t9">
  <route edges="0/7to1/7 1/7to1/8 1/8to1/9 1/9to2/9 2/9to3/9 3/9to4/9 4/9to5/9 5/9to6/9 6/9to7/9 7/9to7/8">
  </route>
 </vehicle>
 <vehicle depart="0.00" id="t10">
  <route edges="8/5to8/6 8/6to7/6 7/6to6/6 6/6to5/6 5/6to4/6 4/6to3/6 3/6to2/6 2/6to2/5 2/5to1/5 1/5to1/6 1/6to2/6">
  </route>
 </vehicle>
 <vehicle depart="0.00" id="t11">
  <route edges="6/9to6/8 6/8to6/7 6/7to6/6 6/6to6/5 6/5to5/5 5/5to5/6">
  </route>
 </vehicle>
 <vehicle depart="0.00" id="t12">
  <route edges="9/4to8/4 8/4to7/4 7/4to6/4 6/4to5/4 5/4to4/4 4/4to3/4 3/4to3/3 3/3to3/2 3/2to2/2 2/2to2/3">
  </route>
 </vehicle>
 <vehicle depart="0.00" id="t13">
  <route edges="5/3to6/3 6/3to6/4 6/4to6/5 6/5to7/5 7/5to8/5 8/5to8/6 8/6to7/6">
  </route>
 </vehicle>
 <vehicle depart="0.00" id="t14">
  <route edges="6/3to5/3 5/3to4/3 4/3to3/3 3/3to3/2 3/2to2/2">
  </route>
 </vehicle>
 <vehicle depart="0.00" id="t15">
  <route edges="1/0to1/1 1/1to1/2 1/2to2/2 2/2to3/2 3/2to4/2 4/2to5/2 5/2to6/2 6/2to7/2 7/2to8/2 8/2to9/2 9/2to9/1">
  </route>
 </vehicle>
 <vehicle depart="0.00" id="t16">
  <route edges="4/7to4/6 4/6to5/6 5/6to5/7 5/7to5/8 5/8to6/8 6/8to7/8 7/8to8/8 8/8to9/8 9/8to9/9 9/9to8/9">
  </route>
 </vehicle>
 <vehicle depart="0.00" id="t17">
  <route edges="1/5to2/5 2/5to2/6 2/6to2/7 2/7to2/8 2/8to2/9 2/9to3/9 3/9to4/9 4/9to5/9 5/9to6/9 6/9to7/9 7/9to7/8">
  </route>
 </vehicle>
 <vehicle depart="0.00" id="t18">
  <route edges="7/9to7/8 7/8to8/8 8/8to8/9 8/9to9/9">
  </route>
 </vehicle>
 <vehicle depart="0.00" id="t19">
  <route edges="0/2to0/3 0/3to0/4 0/4to0/5 0/5to0/6 0/6to0/7 0/7to1/7 1/7to2/7 2/7to3/7 3/7to3/8">
  </route>
 </vehicle>
</routes>
