<?xml version="1.0"?>
<!-- generated on Tue Mar 26 14:52:07 2013 by SUMO duarouter Version 0.16.0
<?xml version="1.0" encoding="UTF-8"?>

<configuration xmlns:xsi="http://www.w3.org/2001/XMLSchema-instance" xsi:noNamespaceSchemaLocation="http://sumo.sf.net/xsd/duarouterConfiguration.xsd">

    <input>
        <net-file value="network.net.xml"/>
        <trip-files value="trips.trips.xml"/>
    </input>

    <output>
        <output-file value="20_36.rou.xml"/>
    </output>

</configuration>
-->
<routes xmlns:xsi="http://www.w3.org/2001/XMLSchema-instance" xsi:nonamespaceschemalocation="http://sumo.sf.net/xsd/routes_file.xsd">
 <vehicle depart="0.00" id="t0">
  <route edges="3/3to4/3 4/3to4/4 4/4to4/5 4/5to4/6 4/6to4/7 4/7to5/7 5/7to6/7 6/7to7/7 7/7to8/7 8/7to9/7 9/7to9/6">
  </route>
 </vehicle>
 <vehicle depart="0.00" id="t1">
  <route edges="9/4to9/5 9/5to9/6 9/6to9/7 9/7to9/8 9/8to9/9 9/9to8/9 8/9to8/8">
  </route>
 </vehicle>
 <vehicle depart="0.00" id="t2">
  <route edges="7/7to7/6 7/6to7/5 7/5to8/5 8/5to8/6">
  </route>
 </vehicle>
 <vehicle depart="0.00" id="t3">
  <route edges="0/0to0/1 0/1to1/1 1/1to2/1 2/1to3/1 3/1to4/1 4/1to5/1 5/1to6/1 6/1to6/2 6/2to5/2">
  </route>
 </vehicle>
 <vehicle depart="0.00" id="t4">
  <route edges="2/6to1/6 1/6to1/5 1/5to1/4 1/4to1/3 1/3to1/2 1/2to1/1 1/1to2/1 2/1to3/1 3/1to4/1 4/1to5/1 5/1to6/1 6/1to7/1 7/1to8/1">
  </route>
 </vehicle>
 <vehicle depart="0.00" id="t5">
  <route edges="4/3to4/4 4/4to4/5 4/5to5/5 5/5to5/6">
  </route>
 </vehicle>
 <vehicle depart="0.00" id="t6">
  <route edges="5/4to4/4 4/4to4/5 4/5to4/6 4/6to5/6 5/6to5/7 5/7to4/7">
  </route>
 </vehicle>
 <vehicle depart="0.00" id="t7">
  <route edges="8/1to7/1 7/1to7/2 7/2to7/3 7/3to7/4 7/4to7/5 7/5to7/6 7/6to7/7 7/7to8/7 8/7to9/7 9/7to9/6">
  </route>
 </vehicle>
 <vehicle depart="0.00" id="t8">
  <route edges="3/5to3/4 3/4to4/4 4/4to4/5 4/5to4/6 4/6to4/7 4/7to4/8 4/8to5/8 5/8to6/8 6/8to7/8 7/8to8/8">
  </route>
 </vehicle>
 <vehicle depart="0.00" id="t9">
  <route edges="8/6to9/6 9/6to9/7 9/7to8/7 8/7to7/7 7/7to6/7 6/7to5/7 5/7to4/7 4/7to3/7 3/7to3/8 3/8to3/9 3/9to4/9">
  </route>
 </vehicle>
 <vehicle depart="0.00" id="t10">
  <route edges="1/4to1/3 1/3to2/3 2/3to2/4 2/4to2/5 2/5to2/6 2/6to2/7 2/7to2/8 2/8to2/9 2/9to3/9 3/9to4/9 4/9to5/9">
  </route>
 </vehicle>
 <vehicle depart="0.00" id="t11">
  <route edges="7/5to6/5 6/5to5/5 5/5to5/4 5/4to5/3 5/3to5/2 5/2to5/1">
  </route>
 </vehicle>
 <vehicle depart="0.00" id="t12">
  <route edges="2/0to1/0 1/0to1/1 1/1to1/2 1/2to1/3 1/3to1/4 1/4to1/5 1/5to1/6 1/6to1/7 1/7to1/8 1/8to2/8 2/8to3/8 3/8to4/8 4/8to5/8 5/8to6/8 6/8to6/9 6/9to5/9">
  </route>
 </vehicle>
 <vehicle depart="0.00" id="t13">
  <route edges="3/3to3/2 3/2to4/2 4/2to4/3 4/3to4/4 4/4to4/5 4/5to4/6 4/6to5/6 5/6to6/6 6/6to7/6 7/6to8/6 8/6to8/7">
  </route>
 </vehicle>
 <vehicle depart="0.00" id="t14">
  <route edges="1/8to1/7 1/7to2/7 2/7to2/8 2/8to3/8 3/8to4/8 4/8to5/8 5/8to5/9">
  </route>
 </vehicle>
 <vehicle depart="0.00" id="t15">
  <route edges="3/8to4/8 4/8to4/7 4/7to5/7 5/7to6/7 6/7to7/7 7/7to8/7 8/7to9/7 9/7to9/8">
  </route>
 </vehicle>
 <vehicle depart="0.00" id="t16">
  <route edges="1/5to1/6 1/6to2/6 2/6to2/5 2/5to3/5 3/5to4/5 4/5to5/5 5/5to6/5 6/5to7/5 7/5to8/5 8/5to9/5">
  </route>
 </vehicle>
 <vehicle depart="0.00" id="t17">
  <route edges="4/2to4/1 4/1to3/1 3/1to3/2 3/2to3/3 3/3to3/4 3/4to3/5 3/5to3/6 3/6to3/7 3/7to3/8">
  </route>
 </vehicle>
 <vehicle depart="0.00" id="t18">
  <route edges="2/2to2/1 2/1to3/1 3/1to3/2 3/2to3/3 3/3to3/4 3/4to3/5 3/5to3/6 3/6to3/7 3/7to3/8 3/8to3/9 3/9to4/9 4/9to4/8">
  </route>
 </vehicle>
 <vehicle depart="0.00" id="t19">
  <route edges="9/1to8/1 8/1to8/2 8/2to8/3 8/3to8/4 8/4to8/5 8/5to8/6 8/6to8/7 8/7to8/8 8/8to8/9 8/9to9/9 9/9to9/8">
  </route>
 </vehicle>
</routes>
