<?xml version="1.0" encoding="UTF-8"?>
<!-- generated on Mon Dec  2 13:17:56 2013 by SUMO duarouter Version 0.17.0
<?xml version="1.0" encoding="UTF-8"?>

<configuration xmlns:xsi="http://www.w3.org/2001/XMLSchema-instance" xsi:noNamespaceSchemaLocation="http://sumo.sf.net/xsd/duarouterConfiguration.xsd">

    <input>
        <net-file value="network.net.xml"/>
        <trip-files value="trips.trips.xml"/>
    </input>

    <output>
        <output-file value="500_35.rou.xml"/>
    </output>

    <processing>
        <ignore-errors value="true"/>
    </processing>

    <time>
        <begin value="0.0"/>
        <end value="500.0"/>
    </time>

</configuration>
-->
<routes xmlns:xsi="http://www.w3.org/2001/XMLSchema-instance" xsi:nonamespaceschemalocation="http://sumo.sf.net/xsd/routes_file.xsd">
 <vehicle depart="0.00" id="0">
  <route edges="5/4to5/5 5/5to6/5 6/5to6/4 6/4to6/3 6/3to7/3 7/3to8/3">
  </route>
 </vehicle>
 <vehicle depart="0.00" id="1">
  <route edges="7/3to7/4 7/4to8/4 8/4to8/5">
  </route>
 </vehicle>
 <vehicle depart="0.00" id="2">
  <route edges="2/9to2/8 2/8to2/7 2/7to2/6 2/6to2/5 2/5to3/5 3/5to4/5 4/5to5/5 5/5to6/5 6/5to7/5 7/5to8/5 8/5to9/5 9/5to9/4">
  </route>
 </vehicle>
 <vehicle depart="0.00" id="3">
  <route edges="5/6to5/5 5/5to5/4 5/4to5/3 5/3to6/3 6/3to7/3 7/3to7/4">
  </route>
 </vehicle>
 <vehicle depart="0.00" id="4">
  <route edges="7/4to6/4 6/4to6/3 6/3to6/2 6/2to7/2 7/2to8/2 8/2to9/2 9/2to9/1 9/1to8/1">
  </route>
 </vehicle>
 <vehicle depart="0.00" id="5">
  <route edges="2/8to2/7 2/7to2/6 2/6to3/6 3/6to3/7 3/7to2/7">
  </route>
 </vehicle>
 <vehicle depart="0.00" id="6">
  <route edges="7/0to8/0 8/0to8/1 8/1to7/1 7/1to6/1 6/1to5/1 5/1to5/2 5/2to5/3 5/3to5/4 5/4to5/5 5/5to5/6 5/6to5/7 5/7to6/7">
  </route>
 </vehicle>
 <vehicle depart="0.00" id="7">
  <route edges="7/3to8/3 8/3to8/4 8/4to7/4 7/4to6/4 6/4to5/4 5/4to4/4 4/4to3/4 3/4to3/5 3/5to3/6 3/6to3/7 3/7to2/7">
  </route>
 </vehicle>
 <vehicle depart="0.00" id="8">
  <route edges="9/4to8/4 8/4to7/4 7/4to6/4 6/4to5/4 5/4to4/4 4/4to3/4 3/4to2/4 2/4to1/4 1/4to0/4 0/4to0/3 0/3to0/2 0/2to0/1 0/1to1/1">
  </route>
 </vehicle>
 <vehicle depart="0.00" id="9">
  <route edges="7/1to6/1 6/1to5/1 5/1to4/1 4/1to3/1 3/1to3/2 3/2to3/3 3/3to3/4 3/4to3/5 3/5to3/6 3/6to3/7 3/7to4/7">
  </route>
 </vehicle>
 <vehicle depart="0.00" id="10">
  <route edges="0/3to0/4 0/4to0/5 0/5to0/6 0/6to1/6 1/6to2/6 2/6to3/6 3/6to4/6 4/6to5/6 5/6to6/6 6/6to6/7">
  </route>
 </vehicle>
 <vehicle depart="0.00" id="11">
  <route edges="0/6to0/7 0/7to1/7 1/7to1/6 1/6to1/5 1/5to1/4 1/4to2/4 2/4to3/4">
  </route>
 </vehicle>
 <vehicle depart="0.00" id="12">
  <route edges="3/3to3/2 3/2to2/2 2/2to2/3 2/3to2/4 2/4to2/5 2/5to2/6 2/6to2/7 2/7to1/7 1/7to1/6">
  </route>
 </vehicle>
 <vehicle depart="0.00" id="13">
  <route edges="1/8to0/8 0/8to0/7 0/7to1/7 1/7to1/8 1/8to1/9 1/9to0/9 0/9to0/8">
  </route>
 </vehicle>
 <vehicle depart="0.00" id="14">
  <route edges="8/2to9/2 9/2to9/1 9/1to8/1 8/1to7/1 7/1to6/1 6/1to5/1 5/1to4/1 4/1to3/1 3/1to2/1 2/1to2/0 2/0to1/0 1/0to1/1">
  </route>
 </vehicle>
 <vehicle depart="0.00" id="15">
  <route edges="1/7to1/8 1/8to0/8 0/8to0/9 0/9to1/9">
  </route>
 </vehicle>
 <vehicle depart="0.00" id="16">
  <route edges="8/8to8/9 8/9to7/9 7/9to6/9 6/9to5/9 5/9to5/8 5/8to5/7 5/7to5/6 5/6to5/5 5/5to5/4 5/4to5/3">
  </route>
 </vehicle>
 <vehicle depart="0.00" id="17">
  <route edges="8/0to9/0 9/0to9/1 9/1to8/1 8/1to8/2 8/2to8/3 8/3to8/4 8/4to8/5 8/5to8/6 8/6to9/6 9/6to9/5">
  </route>
 </vehicle>
 <vehicle depart="0.00" id="18">
  <route edges="4/9to4/8 4/8to4/7 4/7to4/6 4/6to4/5 4/5to4/4 4/4to4/3 4/3to4/2 4/2to4/1 4/1to4/0 4/0to3/0">
  </route>
 </vehicle>
 <vehicle depart="0.00" id="19">
  <route edges="3/9to3/8 3/8to3/7 3/7to2/7 2/7to2/8">
  </route>
 </vehicle>
 <vehicle depart="0.00" id="20">
  <route edges="5/8to6/8 6/8to6/7 6/7to6/6 6/6to6/5 6/5to7/5 7/5to8/5 8/5to9/5 9/5to9/4">
  </route>
 </vehicle>
 <vehicle depart="0.00" id="21">
  <route edges="5/0to5/1 5/1to5/2 5/2to5/3 5/3to5/4 5/4to6/4 6/4to7/4 7/4to7/3">
  </route>
 </vehicle>
 <vehicle depart="0.00" id="22">
  <route edges="8/6to9/6 9/6to9/5 9/5to8/5 8/5to8/4 8/4to8/3 8/3to8/2 8/2to8/1 8/1to8/0">
  </route>
 </vehicle>
 <vehicle depart="0.00" id="23">
  <route edges="6/6to5/6 5/6to4/6 4/6to4/5 4/5to4/4 4/4to5/4 5/4to5/5">
  </route>
 </vehicle>
 <vehicle depart="0.00" id="24">
  <route edges="1/2to0/2 0/2to0/3 0/3to0/4 0/4to0/5 0/5to0/6 0/6to0/7 0/7to1/7 1/7to2/7 2/7to3/7 3/7to3/8 3/8to2/8">
  </route>
 </vehicle>
 <vehicle depart="0.00" id="25">
  <route edges="8/3to8/4 8/4to7/4 7/4to6/4 6/4to5/4 5/4to4/4 4/4to4/5">
  </route>
 </vehicle>
 <vehicle depart="0.00" id="26">
  <route edges="6/7to5/7 5/7to4/7 4/7to3/7 3/7to2/7 2/7to1/7">
  </route>
 </vehicle>
 <vehicle depart="0.00" id="27">
  <route edges="5/7to5/8 5/8to4/8 4/8to3/8 3/8to2/8 2/8to2/7 2/7to2/6 2/6to2/5 2/5to2/4 2/4to2/3 2/3to2/2">
  </route>
 </vehicle>
 <vehicle depart="0.00" id="28">
  <route edges="7/6to8/6 8/6to8/7 8/7to8/8 8/8to8/9 8/9to7/9 7/9to7/8">
  </route>
 </vehicle>
 <vehicle depart="0.00" id="29">
  <route edges="0/2to0/3 0/3to0/4 0/4to0/5 0/5to1/5 1/5to2/5 2/5to3/5 3/5to4/5 4/5to5/5 5/5to6/5 6/5to6/6">
  </route>
 </vehicle>
 <vehicle depart="0.00" id="30">
  <route edges="1/1to2/1 2/1to2/2 2/2to2/3 2/3to3/3 3/3to4/3 4/3to5/3 5/3to6/3 6/3to7/3 7/3to8/3 8/3to9/3 9/3to9/2">
  </route>
 </vehicle>
 <vehicle depart="0.00" id="31">
  <route edges="1/9to0/9 0/9to0/8 0/8to0/7 0/7to0/6 0/6to0/5 0/5to0/4 0/4to1/4 1/4to2/4">
  </route>
 </vehicle>
 <vehicle depart="0.00" id="32">
  <route edges="8/7to7/7 7/7to6/7 6/7to6/6 6/6to6/5 6/5to6/4 6/4to6/3 6/3to6/2 6/2to6/1 6/1to5/1">
  </route>
 </vehicle>
 <vehicle depart="0.00" id="33">
  <route edges="0/1to0/2 0/2to0/3 0/3to0/4 0/4to0/5 0/5to0/6 0/6to1/6 1/6to2/6 2/6to3/6 3/6to4/6 4/6to4/7">
  </route>
 </vehicle>
 <vehicle depart="0.00" id="34">
  <route edges="8/1to8/0 8/0to7/0 7/0to6/0 6/0to5/0 5/0to4/0 4/0to3/0 3/0to2/0 2/0to1/0 1/0to1/1 1/1to1/2 1/2to1/3 1/3to1/4 1/4to1/5 1/5to1/6 1/6to1/7 1/7to1/8 1/8to0/8">
  </route>
 </vehicle>
 <vehicle depart="0.00" id="35">
  <route edges="7/3to8/3 8/3to8/2 8/2to7/2 7/2to6/2 6/2to5/2 5/2to4/2 4/2to4/1 4/1to4/0 4/0to3/0 3/0to3/1">
  </route>
 </vehicle>
 <vehicle depart="0.00" id="36">
  <route edges="4/4to4/5 4/5to3/5 3/5to3/4 3/4to3/3 3/3to3/2 3/2to3/1 3/1to4/1 4/1to4/0 4/0to3/0">
  </route>
 </vehicle>
 <vehicle depart="0.00" id="37">
  <route edges="0/6to1/6 1/6to1/7 1/7to1/8 1/8to1/9 1/9to2/9 2/9to3/9 3/9to3/8">
  </route>
 </vehicle>
 <vehicle depart="0.00" id="38">
  <route edges="5/2to5/1 5/1to6/1 6/1to6/0">
  </route>
 </vehicle>
 <vehicle depart="0.00" id="39">
  <route edges="5/3to6/3 6/3to6/4 6/4to5/4 5/4to4/4 4/4to3/4 3/4to2/4 2/4to1/4 1/4to1/5 1/5to1/6 1/6to1/7 1/7to1/8 1/8to1/9">
  </route>
 </vehicle>
 <vehicle depart="0.00" id="40">
  <route edges="6/0to5/0 5/0to4/0 4/0to3/0 3/0to2/0">
  </route>
 </vehicle>
 <vehicle depart="0.00" id="41">
  <route edges="8/7to9/7 9/7to9/6 9/6to8/6 8/6to7/6 7/6to6/6 6/6to5/6 5/6to4/6 4/6to3/6 3/6to2/6 2/6to1/6 1/6to1/5 1/5to1/4 1/4to1/3 1/3to1/2 1/2to0/2">
  </route>
 </vehicle>
 <vehicle depart="0.00" id="42">
  <route edges="7/6to6/6 6/6to5/6 5/6to4/6 4/6to3/6 3/6to2/6 2/6to1/6 1/6to1/5 1/5to1/4 1/4to1/3 1/3to1/2 1/2to1/1 1/1to1/0 1/0to2/0">
  </route>
 </vehicle>
 <vehicle depart="0.00" id="43">
  <route edges="5/5to6/5 6/5to6/4 6/4to5/4 5/4to4/4 4/4to3/4 3/4to3/5 3/5to4/5">
  </route>
 </vehicle>
 <vehicle depart="0.00" id="44">
  <route edges="4/6to3/6 3/6to3/7 3/7to4/7 4/7to5/7 5/7to6/7 6/7to6/8">
  </route>
 </vehicle>
 <vehicle depart="0.00" id="45">
  <route edges="7/8to6/8 6/8to5/8 5/8to4/8 4/8to3/8 3/8to2/8 2/8to1/8 1/8to0/8 0/8to0/7 0/7to0/6 0/6to0/5 0/5to0/4 0/4to0/3 0/3to0/2 0/2to0/1 0/1to0/0 0/0to1/0">
  </route>
 </vehicle>
 <vehicle depart="0.00" id="46">
  <route edges="8/6to8/5 8/5to7/5 7/5to6/5 6/5to6/4 6/4to6/3">
  </route>
 </vehicle>
 <vehicle depart="0.00" id="47">
  <route edges="1/2to1/3 1/3to1/4 1/4to1/5 1/5to1/6 1/6to1/7 1/7to1/8 1/8to2/8 2/8to3/8 3/8to4/8 4/8to5/8 5/8to6/8 6/8to6/7">
  </route>
 </vehicle>
 <vehicle depart="0.00" id="48">
  <route edges="7/9to6/9 6/9to5/9 5/9to4/9 4/9to3/9 3/9to3/8 3/8to3/7 3/7to4/7">
  </route>
 </vehicle>
 <vehicle depart="0.00" id="49">
  <route edges="8/5to9/5 9/5to9/6 9/6to8/6 8/6to7/6 7/6to6/6 6/6to5/6 5/6to4/6 4/6to3/6 3/6to2/6 2/6to1/6 1/6to1/7 1/7to2/7">
  </route>
 </vehicle>
 <vehicle depart="0.00" id="50">
  <route edges="4/5to5/5 5/5to5/4 5/4to4/4 4/4to3/4 3/4to2/4 2/4to2/5 2/5to2/6">
  </route>
 </vehicle>
 <vehicle depart="0.00" id="51">
  <route edges="8/0to9/0 9/0to9/1 9/1to8/1 8/1to7/1 7/1to6/1 6/1to5/1 5/1to4/1 4/1to3/1 3/1to3/2">
  </route>
 </vehicle>
 <vehicle depart="0.00" id="52">
  <route edges="2/6to1/6 1/6to1/7 1/7to1/8 1/8to1/9 1/9to2/9 2/9to3/9 3/9to4/9 4/9to5/9 5/9to6/9 6/9to7/9 7/9to8/9 8/9to9/9 9/9to9/8">
  </route>
 </vehicle>
 <vehicle depart="0.00" id="53">
  <route edges="4/1to5/1 5/1to5/2 5/2to4/2 4/2to4/3 4/3to4/4 4/4to4/5 4/5to4/6 4/6to4/7">
  </route>
 </vehicle>
 <vehicle depart="0.00" id="54">
  <route edges="6/8to7/8 7/8to7/9 7/9to6/9 6/9to5/9 5/9to4/9 4/9to3/9 3/9to2/9 2/9to1/9 1/9to1/8">
  </route>
 </vehicle>
 <vehicle depart="0.00" id="55">
  <route edges="7/9to6/9 6/9to6/8 6/8to6/7 6/7to7/7">
  </route>
 </vehicle>
 <vehicle depart="0.00" id="56">
  <route edges="4/9to3/9 3/9to3/8 3/8to3/7 3/7to4/7 4/7to5/7 5/7to6/7 6/7to7/7 7/7to7/8 7/8to6/8">
  </route>
 </vehicle>
 <vehicle depart="0.00" id="57">
  <route edges="8/5to8/6 8/6to7/6 7/6to6/6 6/6to5/6 5/6to4/6 4/6to3/6 3/6to2/6 2/6to1/6 1/6to1/5 1/5to1/4 1/4to1/3 1/3to1/2 1/2to0/2">
  </route>
 </vehicle>
 <vehicle depart="0.00" id="58">
  <route edges="9/4to9/5 9/5to8/5 8/5to7/5 7/5to6/5 6/5to5/5 5/5to5/4 5/4to5/3 5/3to5/2 5/2to4/2">
  </route>
 </vehicle>
 <vehicle depart="0.00" id="59">
  <route edges="7/6to7/7 7/7to6/7 6/7to5/7 5/7to5/6 5/6to6/6 6/6to6/7">
  </route>
 </vehicle>
 <vehicle depart="0.00" id="60">
  <route edges="9/5to8/5 8/5to7/5 7/5to6/5">
  </route>
 </vehicle>
 <vehicle depart="0.00" id="61">
  <route edges="2/5to2/6 2/6to1/6 1/6to1/5">
  </route>
 </vehicle>
 <vehicle depart="0.00" id="62">
  <route edges="4/0to4/1 4/1to3/1 3/1to2/1 2/1to2/2 2/2to2/3 2/3to2/4 2/4to2/5 2/5to2/6 2/6to3/6">
  </route>
 </vehicle>
 <vehicle depart="0.00" id="63">
  <route edges="2/4to2/3 2/3to3/3 3/3to4/3 4/3to5/3 5/3to5/4 5/4to4/4">
  </route>
 </vehicle>
 <vehicle depart="0.00" id="64">
  <route edges="5/0to4/0 4/0to4/1">
  </route>
 </vehicle>
 <vehicle depart="0.00" id="65">
  <route edges="7/4to7/5 7/5to6/5 6/5to5/5 5/5to4/5 4/5to3/5 3/5to2/5 2/5to1/5 1/5to1/6 1/6to1/7">
  </route>
 </vehicle>
 <vehicle depart="0.00" id="66">
  <route edges="4/4to4/3 4/3to3/3 3/3to3/4 3/4to4/4 4/4to4/5">
  </route>
 </vehicle>
 <vehicle depart="0.00" id="67">
  <route edges="6/0to6/1 6/1to6/2 6/2to6/3 6/3to6/4 6/4to7/4 7/4to8/4 8/4to9/4">
  </route>
 </vehicle>
 <vehicle depart="0.00" id="68">
  <route edges="5/8to5/7 5/7to4/7 4/7to3/7 3/7to2/7 2/7to1/7 1/7to1/6 1/6to1/5 1/5to1/4 1/4to1/3 1/3to1/2 1/2to1/1 1/1to1/0 1/0to0/0 0/0to0/1">
  </route>
 </vehicle>
 <vehicle depart="0.00" id="69">
  <route edges="5/8to6/8 6/8to6/7 6/7to5/7 5/7to4/7 4/7to3/7 3/7to3/6 3/6to3/5">
  </route>
 </vehicle>
 <vehicle depart="0.00" id="70">
  <route edges="4/2to4/3 4/3to4/4 4/4to4/5 4/5to4/6 4/6to5/6 5/6to5/7">
  </route>
 </vehicle>
 <vehicle depart="0.00" id="71">
  <route edges="2/3to2/4 2/4to2/5 2/5to2/6 2/6to2/7 2/7to3/7 3/7to4/7 4/7to5/7 5/7to6/7 6/7to7/7 7/7to8/7">
  </route>
 </vehicle>
 <vehicle depart="0.00" id="72">
  <route edges="3/7to3/8 3/8to4/8 4/8to4/7 4/7to3/7 3/7to2/7">
  </route>
 </vehicle>
 <vehicle depart="0.00" id="73">
  <route edges="5/4to5/3 5/3to4/3 4/3to3/3 3/3to2/3 2/3to1/3 1/3to0/3 0/3to0/4 0/4to0/5 0/5to0/6 0/6to0/7">
  </route>
 </vehicle>
 <vehicle depart="0.00" id="74">
  <route edges="3/3to3/2 3/2to4/2 4/2to4/3 4/3to4/4 4/4to4/5 4/5to4/6 4/6to4/7 4/7to4/8 4/8to5/8 5/8to6/8 6/8to7/8 7/8to8/8 8/8to9/8 9/8to9/9">
  </route>
 </vehicle>
 <vehicle depart="0.00" id="75">
  <route edges="1/4to0/4 0/4to0/5 0/5to0/6 0/6to0/7 0/7to0/8 0/8to1/8 1/8to1/9 1/9to2/9 2/9to3/9 3/9to3/8">
  </route>
 </vehicle>
 <vehicle depart="0.00" id="76">
  <route edges="7/5to7/6 7/6to6/6 6/6to5/6 5/6to5/7 5/7to4/7 4/7to4/6">
  </route>
 </vehicle>
 <vehicle depart="0.00" id="77">
  <route edges="6/1to6/0 6/0to7/0 7/0to7/1 7/1to7/2 7/2to8/2 8/2to8/3 8/3to7/3">
  </route>
 </vehicle>
 <vehicle depart="0.00" id="78">
  <route edges="8/2to8/3 8/3to7/3 7/3to6/3 6/3to5/3 5/3to4/3 4/3to3/3">
  </route>
 </vehicle>
 <vehicle depart="0.00" id="79">
  <route edges="3/5to3/6 3/6to2/6 2/6to1/6 1/6to0/6 0/6to0/5 0/5to0/4 0/4to0/3 0/3to0/2 0/2to0/1 0/1to1/1">
  </route>
 </vehicle>
 <vehicle depart="0.00" id="80">
  <route edges="7/3to6/3 6/3to5/3 5/3to4/3 4/3to3/3 3/3to2/3 2/3to1/3 1/3to1/4 1/4to1/5 1/5to1/6">
  </route>
 </vehicle>
 <vehicle depart="0.00" id="81">
  <route edges="4/6to4/7 4/7to3/7 3/7to2/7 2/7to1/7 1/7to1/6 1/6to1/5 1/5to1/4 1/4to1/3">
  </route>
 </vehicle>
 <vehicle depart="0.00" id="82">
  <route edges="7/3to7/2 7/2to6/2 6/2to5/2 5/2to4/2 4/2to4/3 4/3to4/4 4/4to4/5 4/5to4/6 4/6to3/6">
  </route>
 </vehicle>
 <vehicle depart="0.00" id="83">
  <route edges="1/3to1/2 1/2to2/2 2/2to2/3 2/3to2/4 2/4to2/5 2/5to2/6 2/6to2/7 2/7to3/7 3/7to4/7 4/7to5/7 5/7to6/7">
  </route>
 </vehicle>
 <vehicle depart="0.00" id="84">
  <route edges="1/1to1/0 1/0to2/0 2/0to2/1 2/1to2/2 2/2to2/3 2/3to2/4 2/4to2/5 2/5to3/5 3/5to3/6">
  </route>
 </vehicle>
 <vehicle depart="0.00" id="85">
  <route edges="2/9to3/9 3/9to3/8 3/8to3/7 3/7to3/6 3/6to3/5 3/5to3/4 3/4to4/4 4/4to5/4 5/4to6/4 6/4to7/4 7/4to7/5">
  </route>
 </vehicle>
 <vehicle depart="0.00" id="86">
  <route edges="5/9to5/8 5/8to4/8 4/8to3/8 3/8to2/8 2/8to2/7 2/7to2/6 2/6to2/5 2/5to2/4 2/4to2/3 2/3to1/3">
  </route>
 </vehicle>
 <vehicle depart="0.00" id="87">
  <route edges="3/4to3/3 3/3to4/3 4/3to4/4 4/4to4/5 4/5to3/5">
  </route>
 </vehicle>
 <vehicle depart="0.00" id="88">
  <route edges="8/1to8/2 8/2to7/2 7/2to6/2 6/2to5/2 5/2to4/2 4/2to3/2 3/2to3/3 3/3to3/4 3/4to3/5 3/5to3/6">
  </route>
 </vehicle>
 <vehicle depart="0.00" id="89">
  <route edges="7/4to6/4 6/4to5/4 5/4to4/4 4/4to3/4 3/4to2/4 2/4to1/4 1/4to0/4 0/4to0/5 0/5to0/6 0/6to0/7 0/7to0/8 0/8to1/8">
  </route>
 </vehicle>
 <vehicle depart="0.00" id="90">
  <route edges="1/4to0/4 0/4to0/5 0/5to1/5 1/5to2/5 2/5to3/5 3/5to4/5 4/5to5/5 5/5to6/5 6/5to7/5 7/5to7/6 7/6to6/6">
  </route>
 </vehicle>
 <vehicle depart="0.00" id="91">
  <route edges="3/6to4/6 4/6to4/5 4/5to3/5 3/5to2/5 2/5to1/5 1/5to1/4 1/4to0/4 0/4to0/5 0/5to1/5">
  </route>
 </vehicle>
 <vehicle depart="0.00" id="92">
  <route edges="2/1to3/1 3/1to3/2 3/2to4/2 4/2to5/2">
  </route>
 </vehicle>
 <vehicle depart="0.00" id="93">
  <route edges="1/1to0/1 0/1to0/2 0/2to0/3 0/3to0/4 0/4to0/5 0/5to0/6 0/6to0/7 0/7to1/7 1/7to2/7 2/7to3/7 3/7to3/8 3/8to2/8">
  </route>
 </vehicle>
 <vehicle depart="0.00" id="94">
  <route edges="9/9to8/9 8/9to7/9 7/9to6/9 6/9to5/9 5/9to4/9 4/9to3/9 3/9to2/9 2/9to1/9 1/9to1/8 1/8to0/8 0/8to0/9 0/9to1/9">
  </route>
 </vehicle>
 <vehicle depart="0.00" id="95">
  <route edges="3/6to2/6 2/6to2/5 2/5to2/4 2/4to2/3 2/3to2/2 2/2to3/2 3/2to4/2">
  </route>
 </vehicle>
 <vehicle depart="0.00" id="96">
  <route edges="1/6to2/6 2/6to2/5 2/5to2/4 2/4to3/4 3/4to4/4 4/4to5/4 5/4to6/4 6/4to7/4 7/4to8/4 8/4to9/4 9/4to9/3 9/3to8/3">
  </route>
 </vehicle>
 <vehicle depart="0.00" id="97">
  <route edges="2/8to2/9 2/9to1/9 1/9to1/8 1/8to1/7 1/7to1/6 1/6to1/5 1/5to1/4 1/4to1/3 1/3to1/2 1/2to1/1 1/1to2/1 2/1to2/0">
  </route>
 </vehicle>
 <vehicle depart="0.00" id="98">
  <route edges="4/4to4/3 4/3to3/3 3/3to2/3 2/3to1/3 1/3to0/3 0/3to0/4 0/4to0/5 0/5to0/6 0/6to0/7 0/7to0/8 0/8to1/8">
  </route>
 </vehicle>
 <vehicle depart="0.00" id="99">
  <route edges="4/7to4/6 4/6to3/6 3/6to2/6 2/6to1/6 1/6to1/7 1/7to1/8 1/8to1/9 1/9to0/9">
  </route>
 </vehicle>
 <vehicle depart="0.00" id="100">
  <route edges="4/9to3/9 3/9to2/9 2/9to1/9 1/9to1/8 1/8to1/7 1/7to1/6 1/6to1/5">
  </route>
 </vehicle>
 <vehicle depart="0.00" id="101">
  <route edges="8/4to9/4 9/4to9/3 9/3to8/3 8/3to7/3 7/3to6/3 6/3to6/2 6/2to6/1 6/1to6/0 6/0to5/0 5/0to5/1">
  </route>
 </vehicle>
 <vehicle depart="0.00" id="102">
  <route edges="6/3to7/3 7/3to7/2 7/2to6/2 6/2to5/2 5/2to4/2 4/2to3/2 3/2to2/2 2/2to2/3 2/3to3/3">
  </route>
 </vehicle>
 <vehicle depart="0.00" id="103">
  <route edges="0/5to0/6 0/6to1/6 1/6to1/5 1/5to2/5 2/5to2/6">
  </route>
 </vehicle>
 <vehicle depart="0.00" id="104">
  <route edges="5/0to4/0 4/0to3/0 3/0to2/0 2/0to1/0 1/0to0/0 0/0to0/1">
  </route>
 </vehicle>
 <vehicle depart="0.00" id="105">
  <route edges="2/0to1/0 1/0to1/1 1/1to1/2 1/2to2/2 2/2to3/2 3/2to4/2 4/2to5/2 5/2to6/2 6/2to7/2 7/2to8/2 8/2to9/2 9/2to9/1 9/1to8/1">
  </route>
 </vehicle>
 <vehicle depart="0.00" id="106">
  <route edges="3/0to4/0 4/0to4/1 4/1to3/1 3/1to2/1 2/1to2/0 2/0to1/0">
  </route>
 </vehicle>
 <vehicle depart="0.00" id="107">
  <route edges="7/9to6/9 6/9to5/9 5/9to4/9 4/9to3/9 3/9to2/9 2/9to2/8">
  </route>
 </vehicle>
 <vehicle depart="0.00" id="108">
  <route edges="5/5to4/5 4/5to4/4 4/4to4/3 4/3to4/2 4/2to5/2 5/2to5/1">
  </route>
 </vehicle>
 <vehicle depart="0.00" id="109">
  <route edges="4/9to4/8 4/8to3/8 3/8to2/8 2/8to1/8 1/8to0/8 0/8to0/7 0/7to0/6 0/6to0/5 0/5to1/5">
  </route>
 </vehicle>
 <vehicle depart="0.00" id="110">
  <route edges="6/7to6/6 6/6to5/6 5/6to4/6 4/6to3/6 3/6to3/5 3/5to3/4 3/4to3/3 3/3to4/3">
  </route>
 </vehicle>
 <vehicle depart="0.00" id="111">
  <route edges="8/4to7/4 7/4to7/5 7/5to8/5 8/5to9/5 9/5to9/6 9/6to8/6">
  </route>
 </vehicle>
 <vehicle depart="0.00" id="112">
  <route edges="3/7to3/8 3/8to4/8 4/8to4/7 4/7to4/6 4/6to4/5 4/5to5/5 5/5to6/5 6/5to7/5 7/5to8/5 8/5to8/4 8/4to7/4">
  </route>
 </vehicle>
 <vehicle depart="0.00" id="113">
  <route edges="9/3to9/4 9/4to8/4 8/4to7/4 7/4to6/4 6/4to5/4 5/4to4/4 4/4to3/4 3/4to2/4 2/4to1/4 1/4to1/5 1/5to1/6 1/6to1/7 1/7to1/8 1/8to1/9 1/9to0/9">
  </route>
 </vehicle>
 <vehicle depart="0.00" id="114">
  <route edges="3/0to3/1 3/1to3/2 3/2to3/3 3/3to3/4 3/4to3/5 3/5to3/6 3/6to3/7 3/7to3/8 3/8to4/8 4/8to5/8 5/8to6/8 6/8to7/8 7/8to8/8 8/8to8/7">
  </route>
 </vehicle>
 <vehicle depart="0.00" id="115">
  <route edges="8/4to9/4 9/4to9/3 9/3to8/3 8/3to7/3 7/3to6/3 6/3to5/3 5/3to4/3 4/3to3/3 3/3to2/3 2/3to1/3">
  </route>
 </vehicle>
 <vehicle depart="0.00" id="116">
  <route edges="2/2to2/3 2/3to2/4 2/4to3/4 3/4to4/4 4/4to5/4 5/4to6/4 6/4to7/4 7/4to8/4 8/4to8/3">
  </route>
 </vehicle>
 <vehicle depart="0.00" id="117">
  <route edges="1/0to1/1 1/1to2/1 2/1to3/1 3/1to3/0 3/0to2/0 2/0to2/1">
  </route>
 </vehicle>
 <vehicle depart="0.00" id="118">
  <route edges="1/8to1/9 1/9to2/9 2/9to2/8 2/8to3/8">
  </route>
 </vehicle>
 <vehicle depart="0.00" id="119">
  <route edges="4/5to4/4 4/4to3/4 3/4to2/4 2/4to1/4 1/4to1/5 1/5to1/6">
  </route>
 </vehicle>
 <vehicle depart="0.00" id="120">
  <route edges="2/1to3/1 3/1to3/2 3/2to3/3 3/3to3/4 3/4to3/5 3/5to3/6 3/6to3/7 3/7to4/7 4/7to5/7 5/7to6/7 6/7to7/7 7/7to8/7 8/7to9/7 9/7to9/8">
  </route>
 </vehicle>
 <vehicle depart="0.00" id="121">
  <route edges="4/7to4/8 4/8to3/8 3/8to3/7 3/7to3/6 3/6to4/6 4/6to4/7">
  </route>
 </vehicle>
 <vehicle depart="0.00" id="122">
  <route edges="3/0to3/1 3/1to3/2 3/2to3/3 3/3to3/4 3/4to3/5 3/5to3/6 3/6to3/7 3/7to3/8 3/8to4/8 4/8to5/8 5/8to6/8 6/8to7/8 7/8to8/8 8/8to9/8 9/8to9/9 9/9to8/9">
  </route>
 </vehicle>
 <vehicle depart="0.00" id="123">
  <route edges="6/0to7/0 7/0to7/1 7/1to6/1 6/1to5/1 5/1to5/2 5/2to5/3 5/3to5/4 5/4to5/5 5/5to5/6 5/6to5/7 5/7to5/8 5/8to4/8 4/8to4/7">
  </route>
 </vehicle>
 <vehicle depart="0.00" id="124">
  <route edges="1/5to1/4 1/4to1/3 1/3to2/3 2/3to3/3 3/3to4/3 4/3to5/3 5/3to6/3 6/3to7/3 7/3to7/2 7/2to6/2">
  </route>
 </vehicle>
 <vehicle depart="0.00" id="125">
  <route edges="3/4to4/4 4/4to4/5 4/5to4/6 4/6to4/7 4/7to4/8 4/8to5/8 5/8to6/8 6/8to7/8 7/8to8/8 8/8to8/9">
  </route>
 </vehicle>
 <vehicle depart="0.00" id="126">
  <route edges="1/5to0/5 0/5to0/6 0/6to1/6 1/6to2/6 2/6to3/6 3/6to4/6 4/6to5/6 5/6to5/7 5/7to4/7">
  </route>
 </vehicle>
 <vehicle depart="0.00" id="127">
  <route edges="7/5to7/4 7/4to6/4 6/4to6/3 6/3to6/2 6/2to6/1 6/1to6/0">
  </route>
 </vehicle>
 <vehicle depart="0.00" id="128">
  <route edges="9/4to9/3 9/3to8/3 8/3to8/4 8/4to8/5 8/5to8/6 8/6to8/7 8/7to9/7 9/7to9/8 9/8to8/8">
  </route>
 </vehicle>
 <vehicle depart="0.00" id="129">
  <route edges="6/9to5/9 5/9to4/9 4/9to3/9 3/9to2/9 2/9to1/9 1/9to0/9 0/9to0/8">
  </route>
 </vehicle>
 <vehicle depart="0.00" id="130">
  <route edges="9/1to9/0 9/0to8/0 8/0to7/0 7/0to6/0 6/0to5/0 5/0to4/0">
  </route>
 </vehicle>
 <vehicle depart="0.00" id="131">
  <route edges="3/7to2/7 2/7to2/6 2/6to2/5 2/5to2/4 2/4to2/3 2/3to3/3 3/3to3/2 3/2to2/2">
  </route>
 </vehicle>
 <vehicle depart="0.00" id="132">
  <route edges="0/2to1/2 1/2to1/1 1/1to2/1 2/1to3/1">
  </route>
 </vehicle>
 <vehicle depart="0.00" id="133">
  <route edges="2/1to2/0 2/0to1/0 1/0to1/1 1/1to1/2 1/2to1/3 1/3to1/4 1/4to1/5 1/5to2/5 2/5to2/6 2/6to1/6">
  </route>
 </vehicle>
 <vehicle depart="0.00" id="134">
  <route edges="7/6to8/6 8/6to8/5 8/5to7/5 7/5to6/5 6/5to5/5 5/5to4/5 4/5to3/5 3/5to2/5 2/5to1/5 1/5to0/5">
  </route>
 </vehicle>
 <vehicle depart="0.00" id="135">
  <route edges="2/6to2/5 2/5to3/5 3/5to3/6 3/6to3/7 3/7to4/7 4/7to5/7 5/7to5/8 5/8to4/8">
  </route>
 </vehicle>
 <vehicle depart="0.00" id="136">
  <route edges="1/5to0/5 0/5to0/6 0/6to1/6 1/6to2/6 2/6to3/6 3/6to4/6 4/6to5/6 5/6to6/6 6/6to7/6 7/6to7/7">
  </route>
 </vehicle>
 <vehicle depart="0.00" id="137">
  <route edges="0/0to1/0 1/0to1/1 1/1to1/2 1/2to1/3 1/3to1/4 1/4to1/5 1/5to1/6 1/6to2/6 2/6to3/6 3/6to4/6 4/6to4/5">
  </route>
 </vehicle>
 <vehicle depart="0.00" id="138">
  <route edges="1/7to2/7 2/7to2/6 2/6to1/6 1/6to1/5 1/5to0/5 0/5to0/6 0/6to1/6">
  </route>
 </vehicle>
 <vehicle depart="0.00" id="139">
  <route edges="6/4to7/4 7/4to7/3 7/3to6/3 6/3to5/3 5/3to5/2">
  </route>
 </vehicle>
 <vehicle depart="0.00" id="140">
  <route edges="4/8to4/9 4/9to3/9 3/9to3/8 3/8to3/7 3/7to3/6 3/6to3/5 3/5to3/4 3/4to3/3 3/3to4/3">
  </route>
 </vehicle>
 <vehicle depart="0.00" id="141">
  <route edges="3/7to3/6 3/6to2/6 2/6to2/5 2/5to2/4 2/4to2/3 2/3to2/2 2/2to2/1 2/1to1/1 1/1to1/2">
  </route>
 </vehicle>
 <vehicle depart="0.00" id="142">
  <route edges="0/3to1/3 1/3to1/4 1/4to1/5 1/5to1/6 1/6to1/7 1/7to1/8 1/8to2/8 2/8to3/8 3/8to4/8 4/8to4/9">
  </route>
 </vehicle>
 <vehicle depart="0.00" id="143">
  <route edges="6/7to6/8 6/8to5/8 5/8to4/8 4/8to3/8 3/8to2/8 2/8to2/7 2/7to2/6 2/6to3/6">
  </route>
 </vehicle>
 <vehicle depart="0.00" id="144">
  <route edges="5/1to4/1 4/1to4/0 4/0to5/0 5/0to6/0">
  </route>
 </vehicle>
 <vehicle depart="0.00" id="145">
  <route edges="3/9to4/9 4/9to4/8 4/8to3/8 3/8to3/7 3/7to3/6 3/6to3/5 3/5to3/4 3/4to3/3 3/3to2/3 2/3to2/4">
  </route>
 </vehicle>
 <vehicle depart="0.00" id="146">
  <route edges="5/5to5/4 5/4to4/4 4/4to4/5 4/5to3/5 3/5to3/4">
  </route>
 </vehicle>
 <vehicle depart="0.00" id="147">
  <route edges="4/4to4/3 4/3to5/3 5/3to5/4 5/4to5/5 5/5to5/6 5/6to6/6 6/6to7/6 7/6to7/7 7/7to6/7">
  </route>
 </vehicle>
 <vehicle depart="0.00" id="148">
  <route edges="5/9to5/8 5/8to5/7 5/7to6/7 6/7to7/7 7/7to7/6">
  </route>
 </vehicle>
 <vehicle depart="0.00" id="149">
  <route edges="7/5to8/5 8/5to8/6 8/6to7/6 7/6to6/6 6/6to6/7 6/7to6/8 6/8to6/9 6/9to5/9 5/9to5/8">
  </route>
 </vehicle>
 <vehicle depart="0.00" id="150">
  <route edges="2/0to3/0 3/0to3/1 3/1to3/2 3/2to3/3 3/3to3/4 3/4to4/4 4/4to5/4 5/4to6/4 6/4to7/4 7/4to8/4 8/4to8/5">
  </route>
 </vehicle>
 <vehicle depart="0.00" id="151">
  <route edges="5/0to6/0 6/0to7/0 7/0to8/0 8/0to8/1">
  </route>
 </vehicle>
 <vehicle depart="0.00" id="152">
  <route edges="0/9to1/9 1/9to1/8 1/8to1/7 1/7to1/6 1/6to1/5 1/5to2/5 2/5to3/5 3/5to4/5 4/5to5/5 5/5to6/5 6/5to6/4 6/4to5/4">
  </route>
 </vehicle>
 <vehicle depart="0.00" id="153">
  <route edges="5/8to4/8 4/8to4/7 4/7to4/6 4/6to4/5 4/5to4/4 4/4to4/3 4/3to4/2 4/2to5/2 5/2to6/2 6/2to7/2 7/2to8/2 8/2to8/1">
  </route>
 </vehicle>
 <vehicle depart="0.00" id="154">
  <route edges="7/1to8/1 8/1to8/2 8/2to7/2 7/2to7/3 7/3to7/4 7/4to7/5 7/5to7/6 7/6to7/7 7/7to7/8 7/8to7/9 7/9to6/9">
  </route>
 </vehicle>
 <vehicle depart="0.00" id="155">
  <route edges="5/4to5/5 5/5to6/5 6/5to6/4 6/4to6/3 6/3to6/2 6/2to6/1 6/1to7/1 7/1to8/1 8/1to9/1 9/1to9/0">
  </route>
 </vehicle>
 <vehicle depart="0.00" id="156">
  <route edges="6/8to7/8 7/8to7/7 7/7to6/7 6/7to5/7 5/7to4/7 4/7to3/7 3/7to2/7 2/7to2/6 2/6to1/6 1/6to1/7 1/7to2/7">
  </route>
 </vehicle>
 <vehicle depart="0.00" id="157">
  <route edges="9/6to8/6 8/6to7/6 7/6to6/6 6/6to5/6 5/6to4/6 4/6to3/6 3/6to2/6 2/6to2/7 2/7to2/8 2/8to2/9">
  </route>
 </vehicle>
 <vehicle depart="0.00" id="158">
  <route edges="2/3to2/2 2/2to2/1 2/1to3/1 3/1to3/2">
  </route>
 </vehicle>
 <vehicle depart="0.00" id="159">
  <route edges="7/8to8/8 8/8to8/7 8/7to7/7 7/7to6/7 6/7to6/6 6/6to6/5 6/5to6/4 6/4to6/3 6/3to6/2 6/2to6/1 6/1to6/0 6/0to7/0">
  </route>
 </vehicle>
 <vehicle depart="0.00" id="160">
  <route edges="5/5to4/5 4/5to3/5 3/5to3/6 3/6to2/6 2/6to2/5">
  </route>
 </vehicle>
 <vehicle depart="0.00" id="161">
  <route edges="5/3to4/3 4/3to4/2 4/2to5/2 5/2to6/2 6/2to7/2 7/2to8/2 8/2to8/1">
  </route>
 </vehicle>
 <vehicle depart="0.00" id="162">
  <route edges="6/5to6/6 6/6to5/6 5/6to5/5 5/5to4/5 4/5to4/6 4/6to5/6">
  </route>
 </vehicle>
 <vehicle depart="0.00" id="163">
  <route edges="7/5to7/6 7/6to6/6 6/6to5/6 5/6to4/6 4/6to3/6 3/6to2/6 2/6to2/7 2/7to2/8 2/8to2/9 2/9to1/9">
  </route>
 </vehicle>
 <vehicle depart="0.00" id="164">
  <route edges="1/2to0/2 0/2to0/3 0/3to0/4 0/4to1/4 1/4to2/4 2/4to3/4 3/4to4/4 4/4to5/4 5/4to6/4 6/4to7/4 7/4to7/3">
  </route>
 </vehicle>
 <vehicle depart="0.00" id="165">
  <route edges="1/0to0/0 0/0to0/1 0/1to0/2 0/2to0/3">
  </route>
 </vehicle>
 <vehicle depart="0.00" id="166">
  <route edges="7/9to7/8 7/8to6/8 6/8to5/8 5/8to5/7 5/7to5/6 5/6to5/5 5/5to5/4 5/4to5/3 5/3to5/2 5/2to5/1 5/1to5/0">
  </route>
 </vehicle>
 <vehicle depart="0.00" id="167">
  <route edges="0/5to1/5 1/5to1/4 1/4to1/3 1/3to2/3 2/3to3/3 3/3to3/4">
  </route>
 </vehicle>
 <vehicle depart="0.00" id="168">
  <route edges="1/7to1/8 1/8to2/8 2/8to2/7 2/7to2/6 2/6to2/5 2/5to2/4 2/4to2/3 2/3to2/2 2/2to3/2 3/2to4/2 4/2to5/2 5/2to5/1">
  </route>
 </vehicle>
 <vehicle depart="0.00" id="169">
  <route edges="4/3to3/3 3/3to3/2 3/2to4/2 4/2to4/3 4/3to5/3 5/3to6/3 6/3to7/3 7/3to8/3 8/3to8/4 8/4to7/4">
  </route>
 </vehicle>
 <vehicle depart="0.00" id="170">
  <route edges="0/2to0/3 0/3to0/4 0/4to0/5 0/5to1/5 1/5to2/5 2/5to3/5 3/5to4/5 4/5to5/5 5/5to5/4">
  </route>
 </vehicle>
 <vehicle depart="0.00" id="171">
  <route edges="6/8to6/7 6/7to5/7 5/7to4/7 4/7to3/7 3/7to2/7 2/7to1/7 1/7to1/6 1/6to1/5">
  </route>
 </vehicle>
 <vehicle depart="0.00" id="172">
  <route edges="8/0to7/0 7/0to7/1 7/1to8/1 8/1to9/1 9/1to9/0">
  </route>
 </vehicle>
 <vehicle depart="0.00" id="173">
  <route edges="6/0to5/0 5/0to5/1 5/1to6/1 6/1to7/1 7/1to7/0">
  </route>
 </vehicle>
 <vehicle depart="0.00" id="174">
  <route edges="8/3to9/3 9/3to9/4 9/4to8/4 8/4to8/5 8/5to8/6 8/6to8/7 8/7to8/8 8/8to8/9 8/9to9/9 9/9to9/8">
  </route>
 </vehicle>
 <vehicle depart="0.00" id="175">
  <route edges="4/0to5/0 5/0to5/1 5/1to4/1 4/1to3/1 3/1to2/1 2/1to2/2 2/2to2/3 2/3to2/4 2/4to2/5 2/5to2/6 2/6to2/7 2/7to2/8">
  </route>
 </vehicle>
 <vehicle depart="0.00" id="176">
  <route edges="1/5to2/5 2/5to2/6 2/6to2/7 2/7to2/8 2/8to3/8 3/8to3/9">
  </route>
 </vehicle>
 <vehicle depart="0.00" id="177">
  <route edges="7/1to7/2 7/2to7/3 7/3to7/4 7/4to7/5 7/5to8/5 8/5to9/5 9/5to9/4">
  </route>
 </vehicle>
 <vehicle depart="0.00" id="178">
  <route edges="5/7to5/6 5/6to5/5 5/5to5/4 5/4to5/3 5/3to5/2 5/2to5/1 5/1to5/0 5/0to6/0 6/0to7/0">
  </route>
 </vehicle>
 <vehicle depart="0.00" id="179">
  <route edges="6/5to5/5 5/5to4/5 4/5to3/5 3/5to2/5 2/5to1/5 1/5to0/5 0/5to0/6">
  </route>
 </vehicle>
 <vehicle depart="0.00" id="180">
  <route edges="0/8to0/7 0/7to0/6 0/6to0/5 0/5to0/4 0/4to0/3 0/3to0/2 0/2to1/2 1/2to1/1 1/1to0/1 0/1to0/2">
  </route>
 </vehicle>
 <vehicle depart="0.00" id="181">
  <route edges="7/9to8/9 8/9to8/8 8/8to8/7 8/7to8/6 8/6to8/5 8/5to8/4 8/4to8/3 8/3to8/2 8/2to7/2">
  </route>
 </vehicle>
 <vehicle depart="0.00" id="182">
  <route edges="2/1to1/1 1/1to1/2 1/2to1/3 1/3to2/3 2/3to3/3 3/3to4/3 4/3to5/3 5/3to6/3 6/3to7/3 7/3to8/3 8/3to8/4 8/4to7/4">
  </route>
 </vehicle>
 <vehicle depart="0.00" id="183">
  <route edges="1/7to2/7 2/7to2/6 2/6to2/5 2/5to2/4 2/4to2/3 2/3to2/2 2/2to2/1 2/1to3/1 3/1to4/1 4/1to4/0">
  </route>
 </vehicle>
 <vehicle depart="0.00" id="184">
  <route edges="4/7to3/7 3/7to3/6 3/6to4/6 4/6to4/7 4/7to5/7 5/7to6/7 6/7to7/7 7/7to8/7 8/7to9/7 9/7to9/8">
  </route>
 </vehicle>
 <vehicle depart="0.00" id="185">
  <route edges="5/2to5/1 5/1to4/1 4/1to3/1 3/1to2/1 2/1to1/1 1/1to0/1 0/1to0/2 0/2to1/2">
  </route>
 </vehicle>
 <vehicle depart="0.00" id="186">
  <route edges="9/6to8/6 8/6to8/5 8/5to7/5">
  </route>
 </vehicle>
 <vehicle depart="0.00" id="187">
  <route edges="9/1to9/2 9/2to8/2 8/2to8/3 8/3to8/4 8/4to8/5 8/5to8/6 8/6to8/7 8/7to8/8 8/8to9/8 9/8to9/7">
  </route>
 </vehicle>
 <vehicle depart="0.00" id="188">
  <route edges="0/5to1/5 1/5to1/4 1/4to1/3">
  </route>
 </vehicle>
 <vehicle depart="0.00" id="189">
  <route edges="2/0to2/1 2/1to3/1 3/1to3/0 3/0to4/0 4/0to5/0 5/0to5/1 5/1to4/1">
  </route>
 </vehicle>
 <vehicle depart="0.00" id="190">
  <route edges="2/3to2/2 2/2to1/2 1/2to1/3 1/3to1/4">
  </route>
 </vehicle>
 <vehicle depart="0.00" id="191">
  <route edges="5/9to6/9 6/9to6/8 6/8to6/7 6/7to6/6 6/6to6/5 6/5to6/4 6/4to6/3 6/3to6/2 6/2to6/1 6/1to7/1 7/1to8/1 8/1to9/1 9/1to9/0 9/0to8/0">
  </route>
 </vehicle>
 <vehicle depart="0.00" id="192">