<?xml version="1.0" encoding="UTF-8"?>

<!-- generated on 2023-03-14 18:03:34.615738 by cutRoutes.py UNKNOWN
  options: small_lust.net.xml buslines.rou.xml <doubleminus>routes-output small_buslines.rou.xml <doubleminus>orig-net lust.net.xml
-->

<routes xmlns:xsi="http://www.w3.org/2001/XMLSchema-instance" xsi:noNamespaceSchemaLocation="http://sumo.dlr.de/xsd/routes_file.xsd">
    <vehicle arrivalPos="-1.00" color="green" depart="14599.84" departLane="best" departPos="0.00" id="AVL---_8_0" type="bus">
        <route edges="--31992#5 --31992#4 --31992#3 --31992#2 --31992#1 --31992#0 --32776#5"/>
    </vehicle>
    <vehicle arrivalPos="-1.00" color="green" depart="14653.80" departLane="best" departPos="0.00" id="AVL---_15_1" type="bus">
        <route edges="-32786#3"/>
    </vehicle>
    <vehicle arrivalPos="-1.00" color="green" depart="14675.29" departLane="best" departPos="0.00" id="AVL---_7_0" type="bus">
        <route edges="-31496#9 -31496#10 -31496#11 -31496#12 -31496#13 -31496#14 -32750#0 -32750#1 -32750#2 -32750#3 --32924#14 --32924#13 --32924#12 --32924#11 --32924#10"/>
    </vehicle>
    <vehicle arrivalPos="-1.00" color="green" depart="14752.76" departLane="best" departPos="0.00" id="AVL---_6_0" type="bus">
        <route edges="-31496#9 -31496#10 -31496#11 -31496#12 -31496#13 -31496#14 -32750#0 -32750#1 -32750#2 -32750#3 -32750#4 -32750#5 -32750#6 -32750#7 -32750#8"/>
    </vehicle>
    <vehicle arrivalPos="-1.00" color="green" depart="14796.60" departLane="best" departPos="0.00" id="AVL---_6_1" type="bus">
        <route edges="--32750#8 --32750#7 --32750#6 --32750#5 --32750#4 --32750#3 --32750#2 --32750#1 --32750#0 --31496#14 --31496#13 --31496#12 --31496#11 --31496#10 --31496#9"/>
    </vehicle>
    <vehicle arrivalPos="-1.00" color="green" depart="14934.59" departLane="best" departPos="0.00" id="AVL---_15_0" type="bus">
        <route edges="--32786#3"/>
    </vehicle>
    <vehicle arrivalPos="-1.00" color="green" depart="14983.94" departLane="best" departPos="0.00" id="AVL---_8_1" type="bus">
        <route edges="-32776#5 -31992#0 -31992#1 -31992#2 -31992#3 -31992#4 -31992#5"/>
    </vehicle>
    <vehicle arrivalPos="-1.00" color="green" depart="15099.25" departLane="best" departPos="0.00" id="AVL---_7_1" type="bus">
        <route edges="-32924#10 -32924#11 -32924#12 -32924#13 -32924#14 --32750#3 --32750#2 --32750#1 --32750#0 --31496#14 --31496#13 --31496#12 --31496#11 --31496#10 --31496#9"/>
    </vehicle>
    <vehicle arrivalPos="-1.00" color="green" depart="16399.84" departLane="best" departPos="0.00" id="AVL---_8_2" type="bus">
        <route edges="--31992#5 --31992#4 --31992#3 --31992#2 --31992#1 --31992#0 --32776#5"/>
    </vehicle>
    <vehicle arrivalPos="-1.00" color="green" depart="16453.80" departLane="best" departPos="0.00" id="AVL---_15_3" type="bus">
        <route edges="-32786#3"/>
    </vehicle>
    <vehicle arrivalPos="-1.00" color="green" depart="16475.29" departLane="best" departPos="0.00" id="AVL---_7_2" type="bus">
        <route edges="-31496#9 -31496#10 -31496#11 -31496#12 -31496#13 -31496#14 -32750#0 -32750#1 -32750#2 -32750#3 --32924#14 --32924#13 --32924#12 --32924#11 --32924#10"/>
    </vehicle>
    <vehicle arrivalPos="-1.00" color="green" depart="16552.76" departLane="best" departPos="0.00" id="AVL---_6_2" type="bus">
        <route edges="-31496#9 -31496#10 -31496#11 -31496#12 -31496#13 -31496#14 -32750#0 -32750#1 -32750#2 -32750#3 -32750#4 -32750#5 -32750#6 -32750#7 -32750#8"/>
    </vehicle>
    <vehicle arrivalPos="-1.00" color="green" depart="16596.60" departLane="best" departPos="0.00" id="AVL---_6_3" type="bus">
        <route edges="--32750#8 --32750#7 --32750#6 --32750#5 --32750#4 --32750#3 --32750#2 --32750#1 --32750#0 --31496#14 --31496#13 --31496#12 --31496#11 --31496#10 --31496#9"/>
    </vehicle>
    <vehicle arrivalPos="-1.00" color="green" depart="16734.59" departLane="best" departPos="0.00" id="AVL---_15_2" type="bus">
        <route edges="--32786#3"/>
    </vehicle>
    <vehicle arrivalPos="-1.00" color="green" depart="16783.94" departLane="best" departPos="0.00" id="AVL---_8_3" type="bus">
        <route edges="-32776#5 -31992#0 -31992#1 -31992#2 -31992#3 -31992#4 -31992#5"/>
    </vehicle>
    <vehicle arrivalPos="-1.00" color="green" depart="16899.25" departLane="best" departPos="0.00" id="AVL---_7_3" type="bus">
        <route edges="-32924#10 -32924#11 -32924#12 -32924#13 -32924#14 --32750#3 --32750#2 --32750#1 --32750#0 --31496#14 --31496#13 --31496#12 --31496#11 --31496#10 --31496#9"/>
    </vehicle>
    <vehicle arrivalPos="-1.00" color="green" depart="18199.84" departLane="best" departPos="0.00" id="AVL---_8_4" type="bus">
        <route edges="--31992#5 --31992#4 --31992#3 --31992#2 --31992#1 --31992#0 --32776#5"/>
    </vehicle>
    <vehicle arrivalPos="-1.00" color="green" depart="18253.80" departLane="best" departPos="0.00" id="AVL---_15_5" type="bus">
        <route edges="-32786#3"/>
    </vehicle>
    <vehicle arrivalPos="-1.00" color="green" depart="18275.29" departLane="best" departPos="0.00" id="AVL---_7_4" type="bus">
        <route edges="-31496#9 -31496#10 -31496#11 -31496#12 -31496#13 -31496#14 -32750#0 -32750#1 -32750#2 -32750#3 --32924#14 --32924#13 --32924#12 --32924#11 --32924#10"/>
    </vehicle>
    <vehicle arrivalPos="-1.00" color="green" depart="18352.76" departLane="best" departPos="0.00" id="AVL---_6_4" type="bus">
        <route edges="-31496#9 -31496#10 -31496#11 -31496#12 -31496#13 -31496#14 -32750#0 -32750#1 -32750#2 -32750#3 -32750#4 -32750#5 -32750#6 -32750#7 -32750#8"/>
    </vehicle>
    <vehicle arrivalPos="-1.00" color="green" depart="18396.60" departLane="best" departPos="0.00" id="AVL---_6_5" type="bus">
        <route edges="--32750#8 --32750#7 --32750#6 --32750#5 --32750#4 --32750#3 --32750#2 --32750#1 --32750#0 --31496#14 --31496#13 --31496#12 --31496#11 --31496#10 --31496#9"/>
    </vehicle>
    <vehicle arrivalPos="-1.00" color="green" depart="18534.59" departLane="best" departPos="0.00" id="AVL---_15_4" type="bus">
        <route edges="--32786#3"/>
    </vehicle>
    <vehicle arrivalPos="-1.00" color="green" depart="18583.94" departLane="best" departPos="0.00" id="AVL---_8_5" type="bus">
        <route edges="-32776#5 -31992#0 -31992#1 -31992#2 -31992#3 -31992#4 -31992#5"/>
    </vehicle>
    <vehicle arrivalPos="-1.00" color="green" depart="18699.25" departLane="best" departPos="0.00" id="AVL---_7_5" type="bus">
        <route edges="-32924#10 -32924#11 -32924#12 -32924#13 -32924#14 --32750#3 --32750#2 --32750#1 --32750#0 --31496#14 --31496#13 --31496#12 --31496#11 --31496#10 --31496#9"/>
    </vehicle>
    <vehicle arrivalPos="-1.00" color="green" depart="19999.84" departLane="best" departPos="0.00" id="AVL---_8_6" type="bus">
        <route edges="--31992#5 --31992#4 --31992#3 --31992#2 --31992#1 --31992#0 --32776#5"/>
    </vehicle>
    <vehicle arrivalPos="-1.00" color="green" depart="20053.80" departLane="best" departPos="0.00" id="AVL---_15_7" type="bus">
        <route edges="-32786#3"/>
    </vehicle>
    <vehicle arrivalPos="-1.00" color="green" depart="20075.29" departLane="best" departPos="0.00" id="AVL---_7_6" type="bus">
        <route edges="-31496#9 -31496#10 -31496#11 -31496#12 -31496#13 -31496#14 -32750#0 -32750#1 -32750#2 -32750#3 --32924#14 --32924#13 --32924#12 --32924#11 --32924#10"/>
    </vehicle>
    <vehicle arrivalPos="-1.00" color="green" depart="20152.76" departLane="best" departPos="0.00" id="AVL---_6_6" type="bus">
        <route edges="-31496#9 -31496#10 -31496#11 -31496#12 -31496#13 -31496#14 -32750#0 -32750#1 -32750#2 -32750#3 -32750#4 -32750#5 -32750#6 -32750#7 -32750#8"/>
    </vehicle>
    <vehicle arrivalPos="-1.00" color="green" depart="20196.60" departLane="best" departPos="0.00" id="AVL---_6_7" type="bus">
        <route edges="--32750#8 --32750#7 --32750#6 --32750#5 --32750#4 --32750#3 --32750#2 --32750#1 --32750#0 --31496#14 --31496#13 --31496#12 --31496#11 --31496#10 --31496#9"/>
    </vehicle>
    <vehicle arrivalPos="-1.00" color="green" depart="20334.59" departLane="best" departPos="0.00" id="AVL---_15_6" type="bus">
        <route edges="--32786#3"/>
    </vehicle>
    <vehicle arrivalPos="-1.00" color="green" depart="20383.94" departLane="best" departPos="0.00" id="AVL---_8_7" type="bus">
        <route edges="-32776#5 -31992#0 -31992#1 -31992#2 -31992#3 -31992#4 -31992#5"/>
    </vehicle>
    <vehicle arrivalPos="-1.00" color="green" depart="20499.25" departLane="best" departPos="0.00" id="AVL---_7_7" type="bus">
        <route edges="-32924#10 -32924#11 -32924#12 -32924#13 -32924#14 --32750#3 --32750#2 --32750#1 --32750#0 --31496#14 --31496#13 --31496#12 --31496#11 --31496#10 --31496#9"/>
    </vehicle>
    <vehicle arrivalPos="-1.00" color="green" depart="21799.84" departLane="best" departPos="0.00" id="AVL---_8_8" type="bus">
        <route edges="--31992#5 --31992#4 --31992#3 --31992#2 --31992#1 --31992#0 --32776#5"/>
    </vehicle>
    <vehicle arrivalPos="-1.00" color="green" depart="21853.80" departLane="best" departPos="0.00" id="AVL---_15_9" type="bus">
        <route edges="-32786#3"/>
    </vehicle>
    <vehicle arrivalPos="-1.00" color="green" depart="21875.29" departLane="best" departPos="0.00" id="AVL---_7_8" type="bus">
        <route edges="-31496#9 -31496#10 -31496#11 -31496#12 -31496#13 -31496#14 -32750#0 -32750#1 -32750#2 -32750#3 --32924#14 --32924#13 --32924#12 --32924#11 --32924#10"/>
    </vehicle>
    <vehicle arrivalPos="-1.00" color="green" depart="21952.76" departLane="best" departPos="0.00" id="AVL---_6_8" type="bus">
        <route edges="-31496#9 -31496#10 -31496#11 -31496#12 -31496#13 -31496#14 -32750#0 -32750#1 -32750#2 -32750#3 -32750#4 -32750#5 -32750#6 -32750#7 -32750#8"/>
    </vehicle>
    <vehicle arrivalPos="-1.00" color="green" depart="21996.60" departLane="best" departPos="0.00" id="AVL---_6_9" type="bus">
        <route edges="--32750#8 --32750#7 --32750#6 --32750#5 --32750#4 --32750#3 --32750#2 --32750#1 --32750#0 --31496#14 --31496#13 --31496#12 --31496#11 --31496#10 --31496#9"/>
    </vehicle>
    <vehicle arrivalPos="-1.00" color="green" depart="22134.59" departLane="best" departPos="0.00" id="AVL---_15_8" type="bus">
        <route edges="--32786#3"/>
    </vehicle>
    <vehicle arrivalPos="-1.00" color="green" depart="22183.94" departLane="best" departPos="0.00" id="AVL---_8_9" type="bus">
        <route edges="-32776#5 -31992#0 -31992#1 -31992#2 -31992#3 -31992#4 -31992#5"/>
    </vehicle>
    <vehicle arrivalPos="-1.00" color="green" depart="22299.25" departLane="best" departPos="0.00" id="AVL---_7_9" type="bus">
        <route edges="-32924#10 -32924#11 -32924#12 -32924#13 -32924#14 --32750#3 --32750#2 --32750#1 --32750#0 --31496#14 --31496#13 --31496#12 --31496#11 --31496#10 --31496#9"/>
    </vehicle>
    <vehicle arrivalPos="-1.00" color="green" depart="23599.84" departLane="best" departPos="0.00" id="AVL---_8_10" type="bus">
        <route edges="--31992#5 --31992#4 --31992#3 --31992#2 --31992#1 --31992#0 --32776#5"/>
    </vehicle>
    <vehicle arrivalPos="-1.00" color="green" depart="23653.80" departLane="best" departPos="0.00" id="AVL---_15_11" type="bus">
        <route edges="-32786#3"/>
    </vehicle>
    <vehicle arrivalPos="-1.00" color="green" depart="23675.29" departLane="best" departPos="0.00" id="AVL---_7_10" type="bus">
        <route edges="-31496#9 -31496#10 -31496#11 -31496#12 -31496#13 -31496#14 -32750#0 -32750#1 -32750#2 -32750#3 --32924#14 --32924#13 --32924#12 --32924#11 --32924#10"/>
    </vehicle>
    <vehicle arrivalPos="-1.00" color="green" depart="23752.76" departLane="best" departPos="0.00" id="AVL---_6_10" type="bus">
        <route edges="-31496#9 -31496#10 -31496#11 -31496#12 -31496#13 -31496#14 -32750#0 -32750#1 -32750#2 -32750#3 -32750#4 -32750#5 -32750#6 -32750#7 -32750#8"/>
    </vehicle>
    <vehicle arrivalPos="-1.00" color="green" depart="23796.60" departLane="best" departPos="0.00" id="AVL---_6_11" type="bus">
        <route edges="--32750#8 --32750#7 --32750#6 --32750#5 --32750#4 --32750#3 --32750#2 --32750#1 --32750#0 --31496#14 --31496#13 --31496#12 --31496#11 --31496#10 --31496#9"/>
    </vehicle>
    <vehicle arrivalPos="-1.00" color="green" depart="23934.59" departLane="best" departPos="0.00" id="AVL---_15_10" type="bus">
        <route edges="--32786#3"/>
    </vehicle>
    <vehicle arrivalPos="-1.00" color="green" depart="23983.94" departLane="best" departPos="0.00" id="AVL---_8_11" type="bus">
        <route edges="-32776#5 -31992#0 -31992#1 -31992#2 -31992#3 -31992#4 -31992#5"/>
    </vehicle>
    <vehicle arrivalPos="-1.00" color="green" depart="24099.25" departLane="best" departPos="0.00" id="AVL---_7_11" type="bus">
        <route edges="-32924#10 -32924#11 -32924#12 -32924#13 -32924#14 --32750#3 --32750#2 --32750#1 --32750#0 --31496#14 --31496#13 --31496#12 --31496#11 --31496#10 --31496#9"/>
    </vehicle>
    <vehicle arrivalPos="-1.00" color="green" depart="25399.84" departLane="best" departPos="0.00" id="AVL---_8_12" type="bus">
        <route edges="--31992#5 --31992#4 --31992#3 --31992#2 --31992#1 --31992#0 --32776#5"/>
    </vehicle>
    <vehicle arrivalPos="-1.00" color="green" depart="25453.80" departLane="best" departPos="0.00" id="AVL---_15_13" type="bus">
        <route edges="-32786#3"/>
    </vehicle>
    <vehicle arrivalPos="-1.00" color="green" depart="25475.29" departLane="best" departPos="0.00" id="AVL---_7_12" type="bus">
        <route edges="-31496#9 -31496#10 -31496#11 -31496#12 -31496#13 -31496#14 -32750#0 -32750#1 -32750#2 -32750#3 --32924#14 --32924#13 --32924#12 --32924#11 --32924#10"/>
    </vehicle>
    <vehicle arrivalPos="-1.00" color="green" depart="25552.76" departLane="best" departPos="0.00" id="AVL---_6_12" type="bus">
        <route edges="-31496#9 -31496#10 -31496#11 -31496#12 -31496#13 -31496#14 -32750#0 -32750#1 -32750#2 -32750#3 -32750#4 -32750#5 -32750#6 -32750#7 -32750#8"/>
    </vehicle>
    <vehicle arrivalPos="-1.00" color="green" depart="25596.60" departLane="best" departPos="0.00" id="AVL---_6_13" type="bus">
        <route edges="--32750#8 --32750#7 --32750#6 --32750#5 --32750#4 --32750#3 --32750#2 --32750#1 --32750#0 --31496#14 --31496#13 --31496#12 --31496#11 --31496#10 --31496#9"/>
    </vehicle>
    <vehicle arrivalPos="-1.00" color="green" depart="25734.59" departLane="best" departPos="0.00" id="AVL---_15_12" type="bus">
        <route edges="--32786#3"/>
    </vehicle>
    <vehicle arrivalPos="-1.00" color="green" depart="25783.94" departLane="best" departPos="0.00" id="AVL---_8_13" type="bus">
        <route edges="-32776#5 -31992#0 -31992#1 -31992#2 -31992#3 -31992#4 -31992#5"/>
    </vehicle>
    <vehicle arrivalPos="-1.00" color="green" depart="25899.25" departLane="best" departPos="0.00" id="AVL---_7_13" type="bus">
        <route edges="-32924#10 -32924#11 -32924#12 -32924#13 -32924#14 --32750#3 --32750#2 --32750#1 --32750#0 --31496#14 --31496#13 --31496#12 --31496#11 --31496#10 --31496#9"/>
    </vehicle>
    <vehicle arrivalPos="-1.00" color="green" depart="27199.84" departLane="best" departPos="0.00" id="AVL---_8_14" type="bus">
        <route edges="--31992#5 --31992#4 --31992#3 --31992#2 --31992#1 --31992#0 --32776#5"/>
    </vehicle>
    <vehicle arrivalPos="-1.00" color="green" depart="27253.80" departLane="best" departPos="0.00" id="AVL---_15_15" type="bus">
        <route edges="-32786#3"/>
    </vehicle>
    <vehicle arrivalPos="-1.00" color="green" depart="27275.29" departLane="best" departPos="0.00" id="AVL---_7_14" type="bus">
        <route edges="-31496#9 -31496#10 -31496#11 -31496#12 -31496#13 -31496#14 -32750#0 -32750#1 -32750#2 -32750#3 --32924#14 --32924#13 --32924#12 --32924#11 --32924#10"/>
    </vehicle>
    <vehicle arrivalPos="-1.00" color="green" depart="27352.76" departLane="best" departPos="0.00" id="AVL---_6_14" type="bus">
        <route edges="-31496#9 -31496#10 -31496#11 -31496#12 -31496#13 -31496#14 -32750#0 -32750#1 -32750#2 -32750#3 -32750#4 -32750#5 -32750#6 -32750#7 -32750#8"/>
    </vehicle>
    <vehicle arrivalPos="-1.00" color="green" depart="27396.60" departLane="best" departPos="0.00" id="AVL---_6_15" type="bus">
        <route edges="--32750#8 --32750#7 --32750#6 --32750#5 --32750#4 --32750#3 --32750#2 --32750#1 --32750#0 --31496#14 --31496#13 --31496#12 --31496#11 --31496#10 --31496#9"/>
    </vehicle>
    <vehicle arrivalPos="-1.00" color="green" depart="27534.59" departLane="best" departPos="0.00" id="AVL---_15_14" type="bus">
        <route edges="--32786#3"/>
    </vehicle>
    <vehicle arrivalPos="-1.00" color="green" depart="27583.94" departLane="best" departPos="0.00" id="AVL---_8_15" type="bus">
        <route edges="-32776#5 -31992#0 -31992#1 -31992#2 -31992#3 -31992#4 -31992#5"/>
    </vehicle>
    <vehicle arrivalPos="-1.00" color="green" depart="27699.25" departLane="best" departPos="0.00" id="AVL---_7_15" type="bus">
        <route edges="-32924#10 -32924#11 -32924#12 -32924#13 -32924#14 --32750#3 --32750#2 --32750#1 --32750#0 --31496#14 --31496#13 --31496#12 --31496#11 --31496#10 --31496#9"/>
    </vehicle>
    <vehicle arrivalPos="-1.00" color="green" depart="28999.84" departLane="best" departPos="0.00" id="AVL---_8_16" type="bus">
        <route edges="--31992#5 --31992#4 --31992#3 --31992#2 --31992#1 --31992#0 --32776#5"/>
    </vehicle>
    <vehicle arrivalPos="-1.00" color="green" depart="29053.80" departLane="best" departPos="0.00" id="AVL---_15_17" type="bus">
        <route edges="-32786#3"/>
    </vehicle>
    <vehicle arrivalPos="-1.00" color="green" depart="29075.29" departLane="best" departPos="0.00" id="AVL---_7_16" type="bus">
        <route edges="-31496#9 -31496#10 -31496#11 -31496#12 -31496#13 -31496#14 -32750#0 -32750#1 -32750#2 -32750#3 --32924#14 --32924#13 --32924#12 --32924#11 --32924#10"/>
    </vehicle>
    <vehicle arrivalPos="-1.00" color="green" depart="29152.76" departLane="best" departPos="0.00" id="AVL---_6_16" type="bus">
        <route edges="-31496#9 -31496#10 -31496#11 -31496#12 -31496#13 -31496#14 -32750#0 -32750#1 -32750#2 -32750#3 -32750#4 -32750#5 -32750#6 -32750#7 -32750#8"/>
    </vehicle>
    <vehicle arrivalPos="-1.00" color="green" depart="29196.60" departLane="best" departPos="0.00" id="AVL---_6_17" type="bus">
        <route edges="--32750#8 --32750#7 --32750#6 --32750#5 --32750#4 --32750#3 --32750#2 --32750#1 --32750#0 --31496#14 --31496#13 --31496#12 --31496#11 --31496#10 --31496#9"/>
    </vehicle>
    <vehicle arrivalPos="-1.00" color="green" depart="29334.59" departLane="best" departPos="0.00" id="AVL---_15_16" type="bus">
        <route edges="--32786#3"/>
    </vehicle>
    <vehicle arrivalPos="-1.00" color="green" depart="29383.94" departLane="best" departPos="0.00" id="AVL---_8_17" type="bus">
        <route edges="-32776#5 -31992#0 -31992#1 -31992#2 -31992#3 -31992#4 -31992#5"/>
    </vehicle>
    <vehicle arrivalPos="-1.00" color="green" depart="29499.25" departLane="best" departPos="0.00" id="AVL---_7_17" type="bus">
        <route edges="-32924#10 -32924#11 -32924#12 -32924#13 -32924#14 --32750#3 --32750#2 --32750#1 --32750#0 --31496#14 --31496#13 --31496#12 --31496#11 --31496#10 --31496#9"/>
    </vehicle>
    <vehicle arrivalPos="-1.00" color="green" depart="30799.84" departLane="best" departPos="0.00" id="AVL---_8_18" type="bus">
        <route edges="--31992#5 --31992#4 --31992#3 --31992#2 --31992#1 --31992#0 --32776#5"/>
    </vehicle>
    <vehicle arrivalPos="-1.00" color="green" depart="30853.80" departLane="best" departPos="0.00" id="AVL---_15_19" type="bus">
        <route edges="-32786#3"/>
    </vehicle>
    <vehicle arrivalPos="-1.00" color="green" depart="30875.29" departLane="best" departPos="0.00" id="AVL---_7_18" type="bus">
        <route edges="-31496#9 -31496#10 -31496#11 -31496#12 -31496#13 -31496#14 -32750#0 -32750#1 -32750#2 -32750#3 --32924#14 --32924#13 --32924#12 --32924#11 --32924#10"/>
    </vehicle>
    <vehicle arrivalPos="-1.00" color="green" depart="30952.76" departLane="best" departPos="0.00" id="AVL---_6_18" type="bus">
        <route edges="-31496#9 -31496#10 -31496#11 -31496#12 -31496#13 -31496#14 -32750#0 -32750#1 -32750#2 -32750#3 -32750#4 -32750#5 -32750#6 -32750#7 -32750#8"/>
    </vehicle>
    <vehicle arrivalPos="-1.00" color="green" depart="30996.60" departLane="best" departPos="0.00" id="AVL---_6_19" type="bus">
        <route edges="--32750#8 --32750#7 --32750#6 --32750#5 --32750#4 --32750#3 --32750#2 --32750#1 --32750#0 --31496#14 --31496#13 --31496#12 --31496#11 --31496#10 --31496#9"/>
    </vehicle>
    <vehicle arrivalPos="-1.00" color="green" depart="31134.59" departLane="best" departPos="0.00" id="AVL---_15_18" type="bus">
        <route edges="--32786#3"/>
    </vehicle>
    <vehicle arrivalPos="-1.00" color="green" depart="31183.94" departLane="best" departPos="0.00" id="AVL---_8_19" type="bus">
        <route edges="-32776#5 -31992#0 -31992#1 -31992#2 -31992#3 -31992#4 -31992#5"/>
    </vehicle>
    <vehicle arrivalPos="-1.00" color="green" depart="31299.25" departLane="best" departPos="0.00" id="AVL---_7_19" type="bus">
        <route edges="-32924#10 -32924#11 -32924#12 -32924#13 -32924#14 --32750#3 --32750#2 --32750#1 --32750#0 --31496#14 --31496#13 --31496#12 --31496#11 --31496#10 --31496#9"/>
    </vehicle>
    <vehicle arrivalPos="-1.00" color="green" depart="32599.84" departLane="best" departPos="0.00" id="AVL---_8_20" type="bus">
        <route edges="--31992#5 --31992#4 --31992#3 --31992#2 --31992#1 --31992#0 --32776#5"/>
    </vehicle>
    <vehicle arrivalPos="-1.00" color="green" depart="32653.80" departLane="best" departPos="0.00" id="AVL---_15_21" type="bus">
        <route edges="-32786#3"/>
    </vehicle>
    <vehicle arrivalPos="-1.00" color="green" depart="32675.29" departLane="best" departPos="0.00" id="AVL---_7_20" type="bus">
        <route edges="-31496#9 -31496#10 -31496#11 -31496#12 -31496#13 -31496#14 -32750#0 -32750#1 -32750#2 -32750#3 --32924#14 --32924#13 --32924#12 --32924#11 --32924#10"/>
    </vehicle>
    <vehicle arrivalPos="-1.00" color="green" depart="32752.76" departLane="best" departPos="0.00" id="AVL---_6_20" type="bus">
        <route edges="-31496#9 -31496#10 -31496#11 -31496#12 -31496#13 -31496#14 -32750#0 -32750#1 -32750#2 -32750#3 -32750#4 -32750#5 -32750#6 -32750#7 -32750#8"/>
    </vehicle>
    <vehicle arrivalPos="-1.00" color="green" depart="32796.60" departLane="best" departPos="0.00" id="AVL---_6_21" type="bus">
        <route edges="--32750#8 --32750#7 --32750#6 --32750#5 --32750#4 --32750#3 --32750#2 --32750#1 --32750#0 --31496#14 --31496#13 --31496#12 --31496#11 --31496#10 --31496#9"/>
    </vehicle>
    <vehicle arrivalPos="-1.00" color="green" depart="32934.59" departLane="best" departPos="0.00" id="AVL---_15_20" type="bus">
        <route edges="--32786#3"/>
    </vehicle>
    <vehicle arrivalPos="-1.00" color="green" depart="32983.94" departLane="best" departPos="0.00" id="AVL---_8_21" type="bus">
        <route edges="-32776#5 -31992#0 -31992#1 -31992#2 -31992#3 -31992#4 -31992#5"/>
    </vehicle>
    <vehicle arrivalPos="-1.00" color="green" depart="33099.25" departLane="best" departPos="0.00" id="AVL---_7_21" type="bus">
        <route edges="-32924#10 -32924#11 -32924#12 -32924#13 -32924#14 --32750#3 --32750#2 --32750#1 --32750#0 --31496#14 --31496#13 --31496#12 --31496#11 --31496#10 --31496#9"/>
    </vehicle>
    <vehicle arrivalPos="-1.00" color="green" depart="34999.84" departLane="best" departPos="0.00" id="AVL---_8_22" type="bus">
        <route edges="--31992#5 --31992#4 --31992#3 --31992#2 --31992#1 --31992#0 --32776#5"/>
    </vehicle>
    <vehicle arrivalPos="-1.00" color="green" depart="35053.80" departLane="best" departPos="0.00" id="AVL---_15_23" type="bus">
        <route edges="-32786#3"/>
    </vehicle>
    <vehicle arrivalPos="-1.00" color="green" depart="35075.29" departLane="best" departPos="0.00" id="AVL---_7_22" type="bus">
        <route edges="-31496#9 -31496#10 -31496#11 -31496#12 -31496#13 -31496#14 -32750#0 -32750#1 -32750#2 -32750#3 --32924#14 --32924#13 --32924#12 --32924#11 --32924#10"/>
    </vehicle>
    <vehicle arrivalPos="-1.00" color="green" depart="35152.76" departLane="best" departPos="0.00" id="AVL---_6_22" type="bus">
        <route edges="-31496#9 -31496#10 -31496#11 -31496#12 -31496#13 -31496#14 -32750#0 -32750#1 -32750#2 -32750#3 -32750#4 -32750#5 -32750#6 -32750#7 -32750#8"/>
    </vehicle>
    <vehicle arrivalPos="-1.00" color="green" depart="35196.60" departLane="best" departPos="0.00" id="AVL---_6_23" type="bus">
        <route edges="--32750#8 --32750#7 --32750#6 --32750#5 --32750#4 --32750#3 --32750#2 --32750#1 --32750#0 --31496#14 --31496#13 --31496#12 --31496#11 --31496#10 --31496#9"/>
    </vehicle>
    <vehicle arrivalPos="-1.00" color="green" depart="35334.59" departLane="best" departPos="0.00" id="AVL---_15_22" type="bus">
        <route edges="--32786#3"/>
    </vehicle>
    <vehicle arrivalPos="-1.00" color="green" depart="35383.94" departLane="best" departPos="0.00" id="AVL---_8_23" type="bus">
        <route edges="-32776#5 -31992#0 -31992#1 -31992#2 -31992#3 -31992#4 -31992#5"/>
    </vehicle>
    <vehicle arrivalPos="-1.00" color="green" depart="35499.25" departLane="best" departPos="0.00" id="AVL---_7_23" type="bus">
        <route edges="-32924#10 -32924#11 -32924#12 -32924#13 -32924#14 --32750#3 --32750#2 --32750#1 --32750#0 --31496#14 --31496#13 --31496#12 --31496#11 --31496#10 --31496#9"/>
    </vehicle>
    <vehicle arrivalPos="-1.00" color="green" depart="37399.84" departLane="best" departPos="0.00" id="AVL---_8_24" type="bus">
        <route edges="--31992#5 --31992#4 --31992#3 --31992#2 --31992#1 --31992#0 --32776#5"/>
    </vehicle>
    <vehicle arrivalPos="-1.00" color="green" depart="37453.80" departLane="best" departPos="0.00" id="AVL---_15_25" type="bus">
        <route edges="-32786#3"/>
    </vehicle>
    <vehicle arrivalPos="-1.00" color="green" depart="37475.29" departLane="best" departPos="0.00" id="AVL---_7_24" type="bus">
        <route edges="-31496#9 -31496#10 -31496#11 -31496#12 -31496#13 -31496#14 -32750#0 -32750#1 -32750#2 -32750#3 --32924#14 --32924#13 --32924#12 --32924#11 --32924#10"/>
    </vehicle>
    <vehicle arrivalPos="-1.00" color="green" depart="37552.76" departLane="best" departPos="0.00" id="AVL---_6_24" type="bus">
        <route edges="-31496#9 -31496#10 -31496#11 -31496#12 -31496#13 -31496#14 -32750#0 -32750#1 -32750#2 -32750#3 -32750#4 -32750#5 -32750#6 -32750#7 -32750#8"/>
    </vehicle>
    <vehicle arrivalPos="-1.00" color="green" depart="37596.60" departLane="best" departPos="0.00" id="AVL---_6_25" type="bus">
        <route edges="--32750#8 --32750#7 --32750#6 --32750#5 --32750#4 --32750#3 --32750#2 --32750#1 --32750#0 --31496#14 --31496#13 --31496#12 --31496#11 --31496#10 --31496#9"/>
    </vehicle>
    <vehicle arrivalPos="-1.00" color="green" depart="37734.59" departLane="best" departPos="0.00" id="AVL---_15_24" type="bus">
        <route edges="--32786#3"/>
    </vehicle>
    <vehicle arrivalPos="-1.00" color="green" depart="37783.94" departLane="best" departPos="0.00" id="AVL---_8_25" type="bus">
        <route edges="-32776#5 -31992#0 -31992#1 -31992#2 -31992#3 -31992#4 -31992#5"/>
    </vehicle>
    <vehicle arrivalPos="-1.00" color="green" depart="37899.25" departLane="best" departPos="0.00" id="AVL---_7_25" type="bus">
        <route edges="-32924#10 -32924#11 -32924#12 -32924#13 -32924#14 --32750#3 --32750#2 --32750#1 --32750#0 --31496#14 --31496#13 --31496#12 --31496#11 --31496#10 --31496#9"/>
    </vehicle>
    <vehicle arrivalPos="-1.00" color="green" depart="39799.84" departLane="best" departPos="0.00" id="AVL---_8_26" type="bus">
        <route edges="--31992#5 --31992#4 --31992#3 --31992#2 --31992#1 --31992#0 --32776#5"/>
    </vehicle>
    <vehicle arrivalPos="-1.00" color="green" depart="39853.80" departLane="best" departPos="0.00" id="AVL---_15_27" type="bus">
        <route edges="-32786#3"/>
    </vehicle>
    <vehicle arrivalPos="-1.00" color="green" depart="39875.29" departLane="best" departPos="0.00" id="AVL---_7_26" type="bus">
        <route edges="-31496#9 -31496#10 -31496#11 -31496#12 -31496#13 -31496#14 -32750#0 -32750#1 -32750#2 -32750#3 --32924#14 --32924#13 --32924#12 --32924#11 --32924#10"/>
    </vehicle>
    <vehicle arrivalPos="-1.00" color="green" depart="39952.76" departLane="best" departPos="0.00" id="AVL---_6_26" type="bus">
        <route edges="-31496#9 -31496#10 -31496#11 -31496#12 -31496#13 -31496#14 -32750#0 -32750#1 -32750#2 -32750#3 -32750#4 -32750#5 -32750#6 -32750#7 -32750#8"/>
    </vehicle>
    <vehicle arrivalPos="-1.00" color="green" depart="39996.60" departLane="best" departPos="0.00" id="AVL---_6_27" type="bus">
        <route edges="--32750#8 --32750#7 --32750#6 --32750#5 --32750#4 --32750#3 --32750#2 --32750#1 --32750#0 --31496#14 --31496#13 --31496#12 --31496#11 --31496#10 --31496#9"/>
    </vehicle>
    <vehicle arrivalPos="-1.00" color="green" depart="40134.59" departLane="best" departPos="0.00" id="AVL---_15_26" type="bus">
        <route edges="--32786#3"/>
    </vehicle>
    <vehicle arrivalPos="-1.00" color="green" depart="40183.94" departLane="best" departPos="0.00" id="AVL---_8_27" type="bus">
        <route edges="-32776#5 -31992#0 -31992#1 -31992#2 -31992#3 -31992#4 -31992#5"/>
    </vehicle>
    <vehicle arrivalPos="-1.00" color="green" depart="40299.25" departLane="best" departPos="0.00" id="AVL---_7_27" type="bus">
        <route edges="-32924#10 -32924#11 -32924#12 -32924#13 -32924#14 --32750#3 --32750#2 --32750#1 --32750#0 --31496#14 --31496#13 --31496#12 --31496#11 --31496#10 --31496#9"/>
    </vehicle>
    <vehicle arrivalPos="-1.00" color="green" depart="41599.84" departLane="best" departPos="0.00" id="AVL---_8_28" type="bus">
        <route edges="--31992#5 --31992#4 --31992#3 --31992#2 --31992#1 --31992#0 --32776#5"/>
    </vehicle>