<?xml version="1.0" encoding="UTF-8"?>

<!-- generated on 2023-03-14 17:56:54 by Eclipse SUMO netconvert Version 1.12.0
<configuration xmlns:xsi="http://www.w3.org/2001/XMLSchema-instance" xsi:noNamespaceSchemaLocation="http://sumo.dlr.de/xsd/netconvertConfiguration.xsd">

    <input>
        <sumo-net-file value="lust.net.xml"/>
    </input>

    <output>
        <output-file value="small_lust.net.xml"/>
    </output>

    <processing>
        <geometry.min-radius.fix.railways value="false"/>
        <geometry.max-grade.fix value="false"/>
        <offset.disable-normalization value="true"/>
        <lefthand value="false"/>
    </processing>

    <edge_removal>
        <keep-edges.in-boundary value="4842,6230,6347,6921"/>
    </edge_removal>

    <junctions>
        <no-turnarounds value="true"/>
        <junctions.corner-detail value="0"/>
        <junctions.limit-turn-speed value="-1"/>
        <rectangular-lane-cut value="false"/>
    </junctions>

    <pedestrian>
        <walkingareas value="false"/>
    </pedestrian>

    <report>
        <aggregate-warnings value="5"/>
    </report>

</configuration>
-->

<net version="1.9" xmlns:xsi="http://www.w3.org/2001/XMLSchema-instance" xsi:noNamespaceSchemaLocation="http://sumo.dlr.de/xsd/net_file.xsd">

    <location netOffset="-285448.66,-5492398.13" convBoundary="4643.40,6034.96,6448.77,7088.78" origBoundary="6.030969,49.549099,6.216758,49.652578" projParameter="+proj=utm +zone=32 +ellps=WGS84 +datum=WGS84 +units=m +no_defs"/>

    <edge id=":-10290_0" function="internal">
        <lane id=":-10290_0_0" index="0" speed="13.89" length="9.03" shape="6257.72,6537.14 6256.66,6534.89 6255.14,6533.55 6253.16,6533.11 6250.71,6533.59"/>
    </edge>
    <edge id=":-10290_1" function="internal">
        <lane id=":-10290_1_0" index="0" speed="13.89" length="20.52" shape="6257.72,6537.14 6255.68,6529.31 6254.98,6523.48 6255.62,6519.66 6257.59,6517.84"/>
        <lane id=":-10290_1_1" index="1" speed="13.89" length="17.54" shape="6257.72,6537.14 6256.09,6530.65 6255.69,6525.78 6256.51,6522.53 6258.54,6520.89"/>
    </edge>
    <edge id=":-10290_3" function="internal">
        <lane id=":-10290_3_0" index="0" speed="13.89" length="11.36" shape="6261.40,6530.06 6250.71,6533.59"/>
        <lane id=":-10290_3_1" index="1" speed="13.89" length="11.36" shape="6260.45,6527.00 6249.66,6530.57"/>
        <lane id=":-10290_3_2" index="2" speed="13.89" length="11.36" shape="6259.49,6523.95 6248.61,6527.55"/>
    </edge>
    <edge id=":-10290_6" function="internal">
        <lane id=":-10290_6_0" index="0" speed="13.89" length="11.68" shape="6245.45,6518.48 6256.64,6514.78"/>
        <lane id=":-10290_6_1" index="1" speed="13.89" length="11.68" shape="6246.50,6521.50 6257.59,6517.84"/>
        <lane id=":-10290_6_2" index="2" speed="13.89" length="11.68" shape="6247.55,6524.52 6258.54,6520.89"/>
    </edge>
    <edge id=":-11174_0" function="internal">
        <lane id=":-11174_0_0" index="0" speed="13.89" length="10.86" shape="6064.55,6906.23 6053.75,6907.24"/>
        <lane id=":-11174_0_1" index="1" speed="13.89" length="10.86" shape="6064.26,6903.04 6053.44,6904.05"/>
    </edge>
    <edge id=":-11174_2" function="internal">
        <lane id=":-11174_2_0" index="0" speed="13.89" length="8.88" shape="6057.60,6891.70 6058.25,6894.06 6059.48,6895.67 6061.29,6896.54 6063.68,6896.67"/>
    </edge>
    <edge id=":-11174_3" function="internal">
        <lane id=":-11174_3_0" index="0" speed="13.89" length="14.45" shape="6057.60,6891.70 6057.92,6896.90 6057.33,6900.69 6055.84,6903.08 6053.44,6904.05"/>
    </edge>
    <edge id=":-11174_4" function="internal">
        <lane id=":-11174_4_0" index="0" speed="13.89" length="10.89" shape="6052.83,6897.68 6063.68,6896.67"/>
        <lane id=":-11174_4_1" index="1" speed="13.89" length="10.89" shape="6053.14,6900.87 6063.97,6899.85"/>
    </edge>
    <edge id=":-11256_0" function="internal">
        <lane id=":-11256_0_0" index="0" speed="13.89" length="0.10" shape="5122.52,6699.83 5122.52,6699.83"/>
    </edge>
    <edge id=":-11324_0" function="internal">
        <lane id=":-11324_0_0" index="0" speed="13.89" length="13.79" shape="5297.62,6574.04 5290.15,6585.63"/>
    </edge>
    <edge id=":-11324_1" function="internal">
        <lane id=":-11324_1_0" index="0" speed="13.89" length="3.77" shape="5297.62,6574.04 5295.06,6576.80"/>
    </edge>
    <edge id=":-11324_6" function="internal">
        <lane id=":-11324_6_0" index="0" speed="13.89" length="10.08" shape="5295.06,6576.80 5292.20,6578.13 5289.05,6578.02 5285.61,6576.46"/>
    </edge>
    <edge id=":-11324_2" function="internal">
        <lane id=":-11324_2_0" index="0" speed="13.89" length="8.83" shape="5287.32,6573.76 5289.52,6574.75 5291.53,6574.83 5293.35,6573.98 5294.98,6572.22"/>
    </edge>
    <edge id=":-11324_3" function="internal">
        <lane id=":-11324_3_0" index="0" speed="13.89" length="13.97" shape="5287.32,6573.76 5290.32,6576.29 5291.79,6579.11 5291.73,6582.22 5290.15,6585.63"/>
    </edge>
    <edge id=":-11324_4" function="internal">
        <lane id=":-11324_4_0" index="0" speed="13.89" length="8.87" shape="5287.39,6584.00 5288.39,6581.83 5288.43,6579.86 5287.51,6578.06 5285.61,6576.46"/>
    </edge>
    <edge id=":-11324_5" function="internal">
        <lane id=":-11324_5_0" index="0" speed="13.89" length="14.02" shape="5287.39,6584.00 5294.98,6572.22"/>
    </edge>
    <edge id=":-11474_0" function="internal">
        <lane id=":-11474_0_0" index="0" speed="13.89" length="10.17" shape="5739.02,6266.67 5736.69,6265.97 5734.43,6266.21 5732.26,6267.39 5730.17,6269.52"/>
    </edge>
    <edge id=":-11474_1" function="internal">
        <lane id=":-11474_1_0" index="0" speed="13.89" length="14.54" shape="5739.02,6266.67 5726.00,6260.20"/>
    </edge>
    <edge id=":-11474_2" function="internal">
        <lane id=":-11474_2_0" index="0" speed="13.89" length="14.54" shape="5727.43,6257.33 5740.44,6263.81"/>
    </edge>
    <edge id=":-11474_3" function="internal">
        <lane id=":-11474_3_0" index="0" speed="13.89" length="4.25" shape="5727.43,6257.33 5730.92,6259.75"/>
    </edge>
    <edge id=":-11474_6" function="internal">
        <lane id=":-11474_6_0" index="0" speed="13.89" length="10.79" shape="5730.92,6259.75 5732.55,6262.59 5732.29,6265.84 5730.17,6269.52"/>
    </edge>
    <edge id=":-11474_4" function="internal">
        <lane id=":-11474_4_0" index="0" speed="13.89" length="9.06" shape="5727.65,6267.54 5728.94,6265.33 5729.09,6263.36 5728.11,6261.65 5726.00,6260.20"/>
    </edge>
    <edge id=":-11474_5" function="internal">
        <lane id=":-11474_5_0" index="0" speed="13.89" length="14.58" shape="5727.65,6267.54 5730.60,6264.59 5733.71,6262.98 5736.99,6262.72 5740.44,6263.81"/>
    </edge>
    <edge id=":-11632_0" function="internal">
        <lane id=":-11632_0_0" index="0" speed="13.89" length="32.85" shape="5938.96,6676.81 5927.66,6672.74 5918.62,6670.55 5911.85,6670.22 5907.35,6671.76"/>
    </edge>
    <edge id=":-11632_1" function="internal">
        <lane id=":-11632_1_0" index="0" speed="13.89" length="37.20" shape="5938.96,6676.81 5904.66,6662.51"/>
        <lane id=":-11632_1_1" index="1" speed="13.89" length="37.20" shape="5940.23,6673.87 5905.89,6659.55"/>
        <lane id=":-11632_1_2" index="2" speed="13.89" length="37.20" shape="5941.50,6670.93 5907.13,6656.60"/>
    </edge>
    <edge id=":-11632_4" function="internal">
        <lane id=":-11632_4_0" index="0" speed="13.89" length="3.36" shape="5941.50,6670.93 5938.75,6669.01"/>
    </edge>
    <edge id=":-11632_16" function="internal">
        <lane id=":-11632_16_0" index="0" speed="13.89" length="27.35" shape="5938.75,6669.01 5934.59,6666.09 5932.08,6659.72 5933.99,6653.07 5940.35,6647.42"/>
    </edge>
    <edge id=":-11632_5" function="internal">
        <lane id=":-11632_5_0" index="0" speed="13.89" length="9.46" shape="5944.98,6655.83 5942.58,6657.56 5941.84,6659.18 5942.75,6660.71 5945.33,6662.12"/>
    </edge>
    <edge id=":-11632_6" function="internal">
        <lane id=":-11632_6_0" index="0" speed="13.89" length="40.67" shape="5943.44,6653.03 5932.82,6658.59 5921.98,6664.00 5912.84,6668.61 5907.35,6671.76"/>
    </edge>
    <edge id=":-11632_7" function="internal">
        <lane id=":-11632_7_0" index="0" speed="13.89" length="18.47" shape="5941.90,6650.23 5931.63,6655.08 5924.80,6657.07"/>
    </edge>
    <edge id=":-11632_17" function="internal">
        <lane id=":-11632_17_0" index="0" speed="13.89" length="17.97" shape="5924.80,6657.07 5922.41,6657.76 5914.25,6658.27 5907.13,6656.60"/>
    </edge>
    <edge id=":-11632_8" function="internal">
        <lane id=":-11632_8_0" index="0" speed="13.89" length="27.86" shape="5910.83,6647.74 5915.82,6648.77 5921.89,6648.13 5929.04,6645.81 5937.26,6641.82"/>
    </edge>
    <edge id=":-11632_9" function="internal">
        <lane id=":-11632_9_0" index="0" speed="13.89" length="37.33" shape="5910.83,6647.74 5945.33,6662.12"/>
        <lane id=":-11632_9_1" index="1" speed="13.89" length="37.33" shape="5909.60,6650.70 5944.05,6665.06"/>
        <lane id=":-11632_9_2" index="2" speed="13.89" length="37.33" shape="5908.36,6653.65 5942.78,6668.00"/>
    </edge>
    <edge id=":-11632_12" function="internal">
        <lane id=":-11632_12_0" index="0" speed="13.89" length="4.37" shape="5908.36,6653.65 5912.07,6655.97"/>
    </edge>
    <edge id=":-11632_18" function="internal">
        <lane id=":-11632_18_0" index="0" speed="13.89" length="20.34" shape="5912.07,6655.97 5913.96,6657.15 5915.65,6661.33 5913.45,6666.20 5907.35,6671.76"/>
    </edge>
    <edge id=":-11632_13" function="internal">
        <lane id=":-11632_13_0" index="0" speed="13.89" length="9.26" shape="5905.45,6669.18 5907.47,6667.25 5908.01,6665.49 5907.07,6663.91 5904.66,6662.51"/>
    </edge>
    <edge id=":-11632_14" function="internal">
        <lane id=":-11632_14_0" index="0" speed="13.89" length="41.47" shape="5905.45,6669.18 5910.52,6665.11 5918.72,6658.51 5928.62,6651.10 5938.81,6644.62"/>
    </edge>
    <edge id=":-11632_15" function="internal">
        <lane id=":-11632_15_0" index="0" speed="13.89" length="9.96" shape="5905.45,6669.18 5913.14,6665.19 5914.42,6664.96"/>
    </edge>
    <edge id=":-11632_19" function="internal">
        <lane id=":-11632_19_0" index="0" speed="13.89" length="29.03" shape="5914.42,6664.96 5921.92,6663.66 5931.80,6664.59 5942.78,6668.00"/>
    </edge>
    <edge id=":-12214_0" function="internal">
        <lane id=":-12214_0_0" index="0" speed="13.89" length="9.07" shape="5529.81,6661.43 5527.84,6659.76 5525.95,6659.27 5524.12,6659.97 5522.37,6661.86"/>
    </edge>
    <edge id=":-12214_1" function="internal">
        <lane id=":-12214_1_0" index="0" speed="13.89" length="14.17" shape="5529.81,6661.43 5526.95,6658.24 5525.02,6656.03 5523.25,6653.71 5520.87,6650.16"/>
        <lane id=":-12214_1_1" index="1" speed="13.89" length="14.17" shape="5532.20,6659.31 5529.44,6656.23 5527.57,6654.09 5525.85,6651.84 5523.55,6648.42"/>
    </edge>
    <edge id=":-12214_3" function="internal">
        <lane id=":-12214_3_0" index="0" speed="13.89" length="13.23" shape="5528.91,6644.92 5531.07,6648.12 5532.67,6650.21 5534.42,6652.20 5537.00,6655.07"/>
        <lane id=":-12214_3_1" index="1" speed="13.89" length="13.23" shape="5526.23,6646.67 5528.46,6649.98 5530.12,6652.15 5531.93,6654.21 5534.60,6657.19"/>
    </edge>
    <edge id=":-12214_5" function="internal">
        <lane id=":-12214_5_0" index="0" speed="13.89" length="2.80" shape="5526.23,6646.67 5527.14,6649.32"/>
    </edge>
    <edge id=":-12214_8" function="internal">
        <lane id=":-12214_8_0" index="0" speed="13.89" length="13.68" shape="5527.14,6649.32 5527.20,6649.48 5526.88,6652.95 5525.27,6657.08 5522.37,6661.86"/>
    </edge>
    <edge id=":-12214_6" function="internal">
        <lane id=":-12214_6_0" index="0" speed="13.89" length="10.58" shape="5519.74,6660.04 5521.27,6657.31 5521.97,6654.76 5521.83,6652.37 5520.87,6650.16"/>
    </edge>
    <edge id=":-12214_7" function="internal">
        <lane id=":-12214_7_0" index="0" speed="13.89" length="18.32" shape="5519.74,6660.04 5523.53,6655.73 5527.27,6653.81 5530.96,6654.30 5534.60,6657.19"/>
    </edge>
    <edge id=":-12374_0" function="internal">
        <lane id=":-12374_0_0" index="0" speed="13.89" length="9.39" shape="5090.38,6907.73 5087.97,6908.11 5086.15,6909.21 5084.92,6911.03 5084.29,6913.57"/>
    </edge>
    <edge id=":-12374_1" function="internal">
        <lane id=":-12374_1_0" index="0" speed="13.89" length="14.11" shape="5090.38,6907.73 5086.15,6907.74 5083.25,6907.67 5080.36,6907.47 5076.14,6907.09"/>
        <lane id=":-12374_1_1" index="1" speed="13.89" length="14.11" shape="5090.36,6904.53 5086.22,6904.54 5083.39,6904.47 5080.56,6904.27 5076.43,6903.91"/>
    </edge>
    <edge id=":-12374_3" function="internal">
        <lane id=":-12374_3_0" index="0" speed="13.89" length="13.50" shape="5077.00,6897.53 5080.95,6897.88 5083.65,6898.07 5086.36,6898.14 5090.32,6898.13"/>
        <lane id=":-12374_3_1" index="1" speed="13.89" length="13.50" shape="5076.72,6900.72 5080.75,6901.08 5083.52,6901.27 5086.29,6901.34 5090.34,6901.33"/>
    </edge>
    <edge id=":-12374_5" function="internal">
        <lane id=":-12374_5_0" index="0" speed="13.89" length="3.76" shape="5076.72,6900.72 5080.33,6901.76"/>
    </edge>
    <edge id=":-12374_8" function="internal">
        <lane id=":-12374_8_0" index="0" speed="13.89" length="13.24" shape="5080.33,6901.76 5080.56,6901.82 5083.10,6904.33 5084.34,6908.25 5084.29,6913.57"/>
    </edge>
    <edge id=":-12374_6" function="internal">
        <lane id=":-12374_6_0" index="0" speed="13.89" length="9.03" shape="5081.11,6913.20 5081.05,6910.72 5080.20,6908.87 5078.56,6907.66 5076.14,6907.09"/>
    </edge>
    <edge id=":-12374_7" function="internal">
        <lane id=":-12374_7_0" index="0" speed="13.89" length="16.57" shape="5081.11,6913.20 5082.21,6908.03 5084.11,6904.32 5086.82,6902.09 5090.34,6901.33"/>
    </edge>
    <edge id=":-12904_0" function="internal">
        <lane id=":-12904_0_0" index="0" speed="13.89" length="14.00" shape="5539.96,6700.22 5532.05,6711.76"/>
    </edge>
    <edge id=":-12904_1" function="internal">
        <lane id=":-12904_1_0" index="0" speed="13.89" length="3.81" shape="5539.96,6700.22 5537.32,6702.97"/>
    </edge>
    <edge id=":-12904_6" function="internal">
        <lane id=":-12904_6_0" index="0" speed="13.89" length="10.15" shape="5537.32,6702.97 5534.42,6704.23 5531.26,6704.02 5527.83,6702.34"/>
    </edge>
    <edge id=":-12904_2" function="internal">
        <lane id=":-12904_2_0" index="0" speed="13.89" length="8.89" shape="5529.64,6699.69 5531.82,6700.77 5533.83,6700.90 5535.68,6700.10 5537.36,6698.35"/>
    </edge>
    <edge id=":-12904_3" function="internal">
        <lane id=":-12904_3_0" index="0" speed="13.89" length="13.96" shape="5529.64,6699.69 5532.46,6702.27 5533.79,6705.14 5533.66,6708.30 5532.05,6711.76"/>
    </edge>
    <edge id=":-12904_4" function="internal">
        <lane id=":-12904_4_0" index="0" speed="13.89" length="8.89" shape="5529.37,6710.02 5530.39,6707.82 5530.48,6705.80 5529.63,6703.98 5527.83,6702.34"/>
    </edge>
    <edge id=":-12904_5" function="internal">
        <lane id=":-12904_5_0" index="0" speed="13.89" length="14.15" shape="5529.37,6710.02 5537.36,6698.35"/>
    </edge>
    <edge id=":-13438_0" function="internal">
        <lane id=":-13438_0_0" index="0" speed="13.89" length="9.50" shape="4927.53,6600.16 4925.04,6600.19 4923.11,6601.06 4921.74,6602.78 4920.93,6605.35"/>
    </edge>
    <edge id=":-13438_1" function="internal">
        <lane id=":-13438_1_0" index="0" speed="13.89" length="20.87" shape="4927.53,6600.16 4906.84,6597.35"/>
    </edge>
    <edge id=":-13438_2" function="internal">
        <lane id=":-13438_2_0" index="0" speed="13.89" length="16.87" shape="4927.53,6600.16 4922.44,6598.87 4918.96,6596.70 4917.09,6593.65 4916.82,6589.72"/>
    </edge>
    <edge id=":-13438_3" function="internal">
        <lane id=":-13438_3_0" index="0" speed="13.89" length="9.18" shape="4923.17,6590.49 4923.21,6593.04 4924.03,6594.97 4925.62,6596.29 4927.98,6596.99"/>
    </edge>
    <edge id=":-13438_4" function="internal">
        <lane id=":-13438_4_0" index="0" speed="13.89" length="14.94" shape="4923.17,6590.49 4920.93,6605.35"/>
        <lane id=":-13438_4_1" index="1" speed="13.89" length="14.94" shape="4919.99,6590.11 4917.78,6604.79"/>
    </edge>
    <edge id=":-13438_6" function="internal">
        <lane id=":-13438_6_0" index="0" speed="13.89" length="3.94" shape="4919.99,6590.11 4918.77,6593.85"/>
    </edge>
    <edge id=":-13438_14" function="internal">
        <lane id=":-13438_14_0" index="0" speed="13.89" length="13.07" shape="4918.77,6593.85 4916.17,6596.31 4912.20,6597.47 4906.84,6597.35"/>
    </edge>
    <edge id=":-13438_7" function="internal">
        <lane id=":-13438_7_0" index="0" speed="13.89" length="9.15" shape="4907.25,6594.17 4909.79,6594.14 4911.70,6593.33 4912.99,6591.72 4913.64,6589.33"/>
    </edge>
    <edge id=":-13438_8" function="internal">
        <lane id=":-13438_8_0" index="0" speed="13.89" length="20.92" shape="4907.25,6594.17 4927.98,6596.99"/>
    </edge>
    <edge id=":-13438_9" function="internal">
        <lane id=":-13438_9_0" index="0" speed="13.89" length="17.13" shape="4907.25,6594.17 4912.47,6595.42 4915.96,6597.60 4917.73,6600.73 4917.78,6604.79"/>
    </edge>
    <edge id=":-13438_10" function="internal">
        <lane id=":-13438_10_0" index="0" speed="13.89" length="9.04" shape="4911.48,6603.66 4911.57,6601.17 4910.82,6599.28 4909.25,6598.01 4906.84,6597.35"/>
    </edge>
    <edge id=":-13438_11" function="internal">
        <lane id=":-13438_11_0" index="0" speed="13.89" length="14.58" shape="4911.48,6603.66 4913.64,6589.33"/>
        <lane id=":-13438_11_1" index="1" speed="13.89" length="14.58" shape="4914.63,6604.22 4916.82,6589.72"/>
    </edge>
    <edge id=":-13438_13" function="internal">
        <lane id=":-13438_13_0" index="0" speed="13.89" length="3.43" shape="4914.63,6604.22 4915.84,6601.02"/>
    </edge>
    <edge id=":-13438_15" function="internal">
        <lane id=":-13438_15_0" index="0" speed="13.89" length="13.68" shape="4915.84,6601.02 4916.06,6600.42 4918.77,6597.95 4922.74,6596.81 4927.98,6596.99"/>
    </edge>
    <edge id=":-13602_0" function="internal">
        <lane id=":-13602_0_0" index="0" speed="13.89" length="15.87" shape="6168.62,6728.01 6167.54,6724.78 6165.21,6722.24 6161.62,6720.40 6156.78,6719.24"/>
    </edge>
    <edge id=":-13602_1" function="internal">
        <lane id=":-13602_1_0" index="0" speed="13.89" length="30.12" shape="6168.62,6728.01 6164.23,6698.21"/>
    </edge>
    <edge id=":-13602_2" function="internal">
        <lane id=":-13602_2_0" index="0" speed="13.89" length="5.72" shape="6168.62,6728.01 6168.49,6722.29"/>
    </edge>
    <edge id=":-13602_16" function="internal">
        <lane id=":-13602_16_0" index="0" speed="13.89" length="16.34" shape="6168.49,6722.29 6168.45,6720.67 6170.10,6715.74 6173.55,6713.23 6178.81,6713.13"/>
    </edge>
    <edge id=":-13602_3" function="internal">
        <lane id=":-13602_3_0" index="0" speed="13.89" length="9.09" shape="6177.11,6722.58 6174.50,6722.48 6172.74,6723.29 6171.84,6725.00 6171.79,6727.61"/>
    </edge>
    <edge id=":-13602_4" function="internal">
        <lane id=":-13602_4_0" index="0" speed="13.89" length="20.70" shape="6177.11,6722.58 6156.78,6719.24"/>
        <lane id=":-13602_4_1" index="1" speed="13.89" length="20.70" shape="6177.67,6719.43 6157.25,6716.07"/>
        <lane id=":-13602_4_2" index="2" speed="13.89" length="20.70" shape="6178.24,6716.28 6157.72,6712.91"/>
    </edge>
    <edge id=":-13602_7" function="internal">
        <lane id=":-13602_7_0" index="0" speed="13.89" length="3.76" shape="6178.24,6716.28 6174.72,6714.97"/>
    </edge>
    <edge id=":-13602_17" function="internal">
        <lane id=":-13602_17_0" index="0" speed="13.89" length="20.68" shape="6174.72,6714.97 6173.13,6714.39 6169.09,6710.74 6166.13,6705.35 6164.23,6698.21"/>
    </edge>
    <edge id=":-13602_8" function="internal">
        <lane id=":-13602_8_0" index="0" speed="13.89" length="16.56" shape="6167.39,6697.67 6168.63,6700.91 6171.13,6703.52 6174.90,6705.49 6179.94,6706.83"/>
    </edge>
    <edge id=":-13602_9" function="internal">
        <lane id=":-13602_9_0" index="0" speed="13.89" length="30.26" shape="6167.39,6697.67 6171.79,6727.61"/>
    </edge>
    <edge id=":-13602_10" function="internal">
        <lane id=":-13602_10_0" index="0" speed="13.89" length="7.51" shape="6167.39,6697.67 6167.87,6705.04 6167.83,6705.16"/>
    </edge>
    <edge id=":-13602_18" function="internal">
        <lane id=":-13602_18_0" index="0" speed="13.89" length="14.68" shape="6167.83,6705.16 6166.42,6710.03 6163.04,6712.66 6157.72,6712.91"/>
    </edge>
    <edge id=":-13602_11" function="internal">
        <lane id=":-13602_11_0" index="0" speed="13.89" length="9.10" shape="6159.13,6703.41 6161.75,6703.43 6163.48,6702.57 6164.30,6700.83 6164.23,6698.21"/>
    </edge>
    <edge id=":-13602_12" function="internal">
        <lane id=":-13602_12_0" index="0" speed="13.89" length="20.99" shape="6159.13,6703.41 6179.94,6706.83"/>
        <lane id=":-13602_12_1" index="1" speed="13.89" length="20.99" shape="6158.66,6706.58 6179.38,6709.98"/>
        <lane id=":-13602_12_2" index="2" speed="13.89" length="20.99" shape="6158.19,6709.74 6178.81,6713.13"/>
    </edge>
    <edge id=":-13602_15" function="internal">
        <lane id=":-13602_15_0" index="0" speed="13.89" length="4.35" shape="6158.19,6709.74 6162.31,6711.14"/>
    </edge>
    <edge id=":-13602_19" function="internal">
        <lane id=":-13602_19_0" index="0" speed="13.89" length="19.90" shape="6162.31,6711.14 6163.39,6711.51 6167.38,6715.07 6170.19,6720.44 6171.79,6727.61"/>
    </edge>
    <edge id=":-14512_0" function="internal">
        <lane id=":-14512_0_0" index="0" speed="13.89" length="14.60" shape="5500.51,6886.72 5496.23,6884.63 5492.57,6883.82 5489.52,6884.29 5487.08,6886.04"/>
    </edge>
    <edge id=":-14512_1" function="internal">
        <lane id=":-14512_1_0" index="0" speed="13.89" length="21.23" shape="5500.51,6886.72 5482.39,6875.56"/>
        <lane id=":-14512_1_1" index="1" speed="13.89" length="21.23" shape="5502.15,6883.97 5484.12,6872.86"/>
    </edge>
    <edge id=":-14512_3" function="internal">
        <lane id=":-14512_3_0" index="0" speed="13.89" length="5.53" shape="5502.15,6883.97 5497.84,6880.49"/>
    </edge>
    <edge id=":-14512_14" function="internal">
        <lane id=":-14512_14_0" index="0" speed="13.89" length="14.95" shape="5497.84,6880.49 5497.69,6880.36 5495.70,6876.32 5496.17,6871.83 5499.09,6866.91"/>
    </edge>
    <edge id=":-14512_4" function="internal">
        <lane id=":-14512_4_0" index="0" speed="13.89" length="9.05" shape="5504.07,6870.93 5502.78,6873.11 5502.57,6875.09 5503.45,6876.88 5505.42,6878.47"/>
    </edge>
    <edge id=":-14512_5" function="internal">
        <lane id=":-14512_5_0" index="0" speed="13.89" length="22.44" shape="5501.58,6868.92 5487.08,6886.04"/>
    </edge>
    <edge id=":-14512_6" function="internal">
        <lane id=":-14512_6_0" index="0" speed="13.89" length="19.93" shape="5501.58,6868.92 5497.47,6872.91 5493.19,6874.89 5488.74,6874.88 5484.12,6872.86"/>
    </edge>
    <edge id=":-14512_7" function="internal">
        <lane id=":-14512_7_0" index="0" speed="13.89" length="10.43" shape="5487.58,6867.48 5489.86,6868.41 5492.12,6868.30 5494.37,6867.12 5496.61,6864.90"/>
    </edge>
    <edge id=":-14512_8" function="internal">
        <lane id=":-14512_8_0" index="0" speed="13.89" length="21.01" shape="5487.58,6867.48 5505.42,6878.47"/>
        <lane id=":-14512_8_1" index="1" speed="13.89" length="21.01" shape="5485.85,6870.17 5503.78,6881.22"/>
    </edge>
    <edge id=":-14512_10" function="internal">
        <lane id=":-14512_10_0" index="0" speed="13.89" length="4.06" shape="5485.85,6870.17 5488.87,6872.87"/>
    </edge>
    <edge id=":-14512_15" function="internal">
        <lane id=":-14512_15_0" index="0" speed="13.89" length="14.81" shape="5488.87,6872.87 5489.59,6873.51 5491.04,6877.27 5490.21,6881.45 5487.08,6886.04"/>
    </edge>
    <edge id=":-14512_11" function="internal">
        <lane id=":-14512_11_0" index="0" speed="13.89" length="10.23" shape="5484.69,6883.92 5486.01,6881.75 5486.07,6879.63 5484.86,6877.57 5482.39,6875.56"/>
    </edge>
    <edge id=":-14512_12" function="internal">
        <lane id=":-14512_12_0" index="0" speed="13.89" length="22.29" shape="5484.69,6883.92 5499.09,6866.91"/>
    </edge>
    <edge id=":-14512_13" function="internal">
        <lane id=":-14512_13_0" index="0" speed="13.89" length="21.19" shape="5484.69,6883.92 5488.95,6880.30 5493.55,6878.64 5498.49,6878.95 5503.78,6881.22"/>
    </edge>
    <edge id=":-1466_0" function="internal">
        <lane id=":-1466_0_0" index="0" speed="13.89" length="13.80" shape="5851.10,6313.47 5844.58,6325.51"/>
        <lane id=":-1466_0_1" index="1" speed="13.89" length="13.80" shape="5848.34,6311.85 5841.72,6324.08"/>
    </edge>
    <edge id=":-1466_2" function="internal">
        <lane id=":-1466_2_0" index="0" speed="13.89" length="3.14" shape="5848.34,6311.85 5846.25,6314.20"/>
    </edge>
    <edge id=":-1466_8" function="internal">
        <lane id=":-1466_8_0" index="0" speed="13.89" length="13.53" shape="5846.25,6314.20 5845.85,6314.65 5842.54,6315.89 5838.43,6315.57 5833.50,6313.69"/>
    </edge>
    <edge id=":-1466_3" function="internal">
        <lane id=":-1466_3_0" index="0" speed="13.89" length="9.20" shape="5834.93,6310.83 5837.34,6311.64 5839.46,6311.55 5841.28,6310.54 5842.81,6308.63"/>
    </edge>
    <edge id=":-1466_4" function="internal">
        <lane id=":-1466_4_0" index="0" speed="13.89" length="16.88" shape="5834.93,6310.83 5839.39,6313.66 5842.01,6316.82 5842.79,6320.29 5841.72,6324.08"/>
    </edge>
    <edge id=":-1466_5" function="internal">
        <lane id=":-1466_5_0" index="0" speed="13.89" length="9.03" shape="5836.00,6321.20 5836.79,6318.85 5836.64,6316.82 5835.54,6315.10 5833.50,6313.69"/>
    </edge>
    <edge id=":-1466_6" function="internal">
        <lane id=":-1466_6_0" index="0" speed="13.89" length="14.20" shape="5836.00,6321.20 5842.81,6308.63"/>
        <lane id=":-1466_6_1" index="1" speed="13.89" length="14.20" shape="5838.86,6322.64 5845.58,6310.24"/>
    </edge>
    <edge id=":-16014_0" function="internal">
        <lane id=":-16014_0_0" index="0" speed="13.89" length="14.31" shape="5070.53,6433.63 5056.32,6432.14"/>
        <lane id=":-16014_0_1" index="1" speed="13.89" length="14.31" shape="5070.87,6430.45 5056.65,6428.95"/>
        <lane id=":-16014_0_2" index="2" speed="13.89" length="14.31" shape="5071.22,6427.27 5056.97,6425.77"/>
    </edge>
    <edge id=":-16014_3" function="internal">
        <lane id=":-16014_3_0" index="0" speed="13.89" length="2.99" shape="5071.22,6427.27 5068.41,6426.24"/>
    </edge>
    <edge id=":-16014_11" function="internal">
        <lane id=":-16014_11_0" index="0" speed="13.89" length="16.61" shape="5068.41,6426.24 5067.51,6425.91 5065.09,6422.79 5063.95,6417.89 5064.09,6411.23"/>
    </edge>
    <edge id=":-16014_4" function="internal">
        <lane id=":-16014_4_0" index="0" speed="13.89" length="9.03" shape="5067.27,6411.56 5067.37,6414.03 5068.23,6415.88 5069.86,6417.11 5072.25,6417.72"/>
    </edge>
    <edge id=":-16014_5" function="internal">
        <lane id=":-16014_5_0" index="0" speed="13.89" length="22.46" shape="5067.27,6411.56 5065.90,6419.50 5063.67,6425.05 5060.59,6428.20 5056.65,6428.95"/>
        <lane id=":-16014_5_1" index="1" speed="13.89" length="19.61" shape="5067.27,6411.56 5066.04,6418.11 5063.91,6422.66 5060.89,6425.22 5056.97,6425.77"/>
    </edge>
    <edge id=":-16014_7" function="internal">
        <lane id=":-16014_7_0" index="0" speed="13.89" length="9.02" shape="5057.95,6416.22 5060.42,6416.12 5062.27,6415.26 5063.49,6413.63 5064.09,6411.23"/>
    </edge>
    <edge id=":-16014_8" function="internal">
        <lane id=":-16014_8_0" index="0" speed="13.89" length="14.36" shape="5057.95,6416.22 5072.25,6417.72"/>
        <lane id=":-16014_8_1" index="1" speed="13.89" length="14.36" shape="5057.62,6419.40 5071.91,6420.91"/>
        <lane id=":-16014_8_2" index="2" speed="13.89" length="14.36" shape="5057.30,6422.59 5071.56,6424.09"/>
    </edge>
    <edge id=":-16568_0" function="internal">
        <lane id=":-16568_0_0" index="0" speed="13.89" length="15.00" shape="6022.46,6328.89 6009.26,6321.77"/>
    </edge>
    <edge id=":-16568_1" function="internal">
        <lane id=":-16568_1_0" index="0" speed="13.89" length="4.66" shape="6022.46,6328.89 6018.72,6326.11"/>
    </edge>
    <edge id=":-16568_6" function="internal">
        <lane id=":-16568_6_0" index="0" speed="13.89" length="11.60" shape="6018.72,6326.11 6018.61,6326.03 6017.19,6323.01 6018.22,6319.84 6021.68,6316.52"/>
    </edge>
    <edge id=":-16568_2" function="internal">
        <lane id=":-16568_2_0" index="0" speed="13.89" length="9.17" shape="6023.56,6319.11 6021.61,6320.98 6021.03,6322.77 6021.83,6324.47 6024.00,6326.08"/>
    </edge>
    <edge id=":-16568_3" function="internal">
        <lane id=":-16568_3_0" index="0" speed="13.89" length="15.34" shape="6023.56,6319.11 6019.62,6321.49 6015.92,6322.72 6012.47,6322.82 6009.26,6321.77"/>
    </edge>
    <edge id=":-16568_4" function="internal">
        <lane id=":-16568_4_0" index="0" speed="13.89" length="11.78" shape="6010.74,6318.94 6013.08,6319.65 6015.69,6319.49 6018.55,6318.45 6021.68,6316.52"/>
    </edge>
    <edge id=":-16568_5" function="internal">
        <lane id=":-16568_5_0" index="0" speed="13.89" length="15.06" shape="6010.74,6318.94 6024.00,6326.08"/>
    </edge>
    <edge id=":-16582_0" function="internal">