<?xml version="1.0" encoding="UTF-8"?>

<!-- generated on 2023-03-14 18:06:08.848843 by cutRoutes.py UNKNOWN
  options: small_lust.net.xml transit.rou.xml <doubleminus>routes-output small_transit.rou.xml <doubleminus>orig-net lust.net.xml
-->

<routes xmlns:xsi="http://www.w3.org/2001/XMLSchema-instance" xsi:noNamespaceSchemaLocation="http://sumo.dlr.de/xsd/routes_file.xsd">
</routes>
