<?xml version="1.0" encoding="UTF-8"?>

<!-- generated on 2023-03-14 18:05:39.743670 by cutRoutes.py UNKNOWN
  options: small_lust.net.xml DUARoutes/local.0.rou.xml <doubleminus>routes-output small_local.0.rou.xml <doubleminus>orig-net lust.net.xml
-->

<routes xmlns:xsi="http://www.w3.org/2001/XMLSchema-instance" xsi:noNamespaceSchemaLocation="http://sumo.dlr.de/xsd/routes_file.xsd">
    <vehicle arrivalPos="random" arrivalSpeed="0.00" depart="37.00" departPos="random" departSpeed="0.00" id="randUni5299:1" type="passenger1">
        <route edges="--32326#1 --31566 -30370#3 --31458#2 --31458#1 --31458#0 -31496#12 -31496#13 -31496#14 -32750#0 -32750#1 -32750#2 -32750#3 --32924#14 --32924#13 --32924#12 --32924#11 --32924#10"/>
    </vehicle>
    <vehicle arrivalPos="random" arrivalSpeed="0.00" depart="169.20" departPos="random" departSpeed="0.00" id="randUni14395:1" type="passenger1">
        <route edges="-32924#10 -32924#11 -32924#12 -32924#13 -32924#14 --32750#3 --32750#2 --32750#1 --32750#0 --31496#14 --31496#13 --31496#12 --31496#11 --31496#10 --31496#9"/>
    </vehicle>
    <vehicle arrivalPos="random" arrivalSpeed="0.00" depart="256.54" departPos="random" departSpeed="0.00" id="randUni13909:1" type="passenger1">
        <route edges="-31496#9 -31496#10 -31496#11 -31496#12 -31496#13 -31496#14 -32750#0 -32750#1 -32750#2 -32750#3 --32924#14 --32924#13 --32924#12 --32924#11 --32924#10"/>
    </vehicle>
    <vehicle arrivalPos="random" arrivalSpeed="0.00" depart="257.84" departPos="random" departSpeed="0.00" id="randUni15799:1" type="passenger2b">
        <route edges="--32750#8 --32750#7 --32750#6 --32750#5 --32750#4 --32750#3 --32750#2 --32750#1 --32750#0 --31496#14 --31496#13 --31496#12 --31496#11 --31496#10 --31496#9"/>
    </vehicle>
    <vehicle arrivalPos="random" arrivalSpeed="0.00" depart="263.56" departPos="random" departSpeed="0.00" id="randUni7405:1" type="passenger1">
        <route edges="-31496#9 -31496#10 -31496#11 -31496#12 -31496#13 -31496#14 -32750#0 -32750#1 -32750#2 -32750#3 -32750#4 -32750#5 -32750#6 -32750#7 -32750#8"/>
    </vehicle>
    <vehicle arrivalPos="random" arrivalSpeed="0.00" depart="314.43" departPos="random" departSpeed="0.00" id="randUni10908:1" type="passenger2b">
        <route edges="-31204#2 -31610#4"/>
    </vehicle>
    <vehicle arrivalPos="random" arrivalSpeed="0.00" depart="315.00" departPos="random" departSpeed="0.00" id="randUni4743:1" type="passenger5">
        <route edges="-31496#13 -31496#14 -32750#0 -32750#1 -32750#2 -32750#3 -32750#4 -32750#5 -32750#6 -32750#7 -32750#8"/>
    </vehicle>
    <vehicle arrivalPos="random" arrivalSpeed="0.00" depart="385.02" departPos="random" departSpeed="0.00" id="randUni13094:1" type="passenger1">
        <route edges="-31496#9 -31496#10 -31496#11 -31496#12 -31496#13 -31496#14 -32750#0 -32750#1 -32750#2 -32750#3 --32924#14 --32924#13 --32924#12 --32924#11 --32924#10"/>
    </vehicle>
    <vehicle arrivalPos="random" arrivalSpeed="0.00" depart="524.03" departPos="random" departSpeed="0.00" id="randUni20223:1" type="passenger2b">
        <route edges="-31496#9 -31496#10 -31496#11 -31496#12 -31496#13 -31496#14 -32750#0 -32750#1 -32750#2 -32750#3 -32750#4 -32750#5 -32750#6 -32750#7 -32750#8"/>
    </vehicle>
    <vehicle arrivalPos="random" arrivalSpeed="0.00" depart="591.09" departPos="random" departSpeed="0.00" id="randUni18817:1" type="passenger2a">
        <route edges="-31496#9 -31496#10 -31496#11 -31496#12 -31496#13 -31496#14 -32750#0 -32750#1 -32750#2 -32750#3 -32750#4 -32750#5 -30300#0 -30300#1 -31610#3 -31204#3"/>
    </vehicle>
    <vehicle arrivalPos="random" arrivalSpeed="0.00" depart="606.90" departPos="random" departSpeed="0.00" id="randUni4303:1" type="passenger2b">
        <route edges="-32644#2 --31610#1 --32818#4 --32818#3 --32750#6 --32750#5 --32750#4 --32750#3 --32750#2 --32750#1 --32750#0 --31496#14 --31496#13 --31496#12 --31496#11 --31496#10 --31496#9"/>
    </vehicle>
    <vehicle arrivalPos="random" arrivalSpeed="0.00" depart="612.41" departPos="random" departSpeed="0.00" id="randUni10497:1" type="passenger1">
        <route edges="--32750#8 --32750#7 --32750#6 --32750#5 --32750#4 --32750#3 --32750#2 --32750#1 --32750#0 --31496#14 --31496#13 --31496#12 --31496#11 --31496#10 --31496#9"/>
    </vehicle>
    <vehicle arrivalPos="random" arrivalSpeed="0.00" depart="620.54" departPos="random" departSpeed="0.00" id="randUni14249:1" type="passenger2b">
        <route edges="-31496#9 -31496#10 -31496#11 -31496#12 -31496#13 -31496#14 -32750#0 -32750#1 -32750#2 -32750#3 -32750#4 -32750#5 -32750#6 -32750#7 -32750#8"/>
    </vehicle>
    <vehicle arrivalPos="random" arrivalSpeed="0.00" depart="653.95" departPos="random" departSpeed="0.00" id="randUni4785:1" type="passenger2b">
        <route edges="-31496#9 -31496#10 -31496#11 -31496#12 -31496#13 -31496#14 -32750#0 -32750#1 -32750#2 -32750#3 -32750#4 -32750#5 -32750#6 -32750#7 -32750#8"/>
    </vehicle>
    <vehicle arrivalPos="random" arrivalSpeed="0.00" depart="725.97" departPos="random" departSpeed="0.00" id="randUni11885:1" type="passenger1">
        <route edges="--31522#0 -31992#3"/>
    </vehicle>
    <vehicle arrivalPos="random" arrivalSpeed="0.00" depart="757.05" departPos="random" departSpeed="0.00" id="randUni226:1" type="passenger1">
        <route edges="--32750#8 --32750#7 --32750#6 --32750#5 --32750#4 --32750#3 --31970"/>
    </vehicle>
    <vehicle arrivalPos="random" arrivalSpeed="0.00" depart="775.41" departPos="random" departSpeed="0.00" id="randUni15119:1" type="passenger2a">
        <route edges="-31496#9 -31496#10 -31496#11 -31496#12 -31496#13 -31496#14 -32750#0 -32750#1 -32750#2 -32750#3 --32924#14 --32924#13 --32924#12 --32924#11 --32924#10"/>
    </vehicle>
    <vehicle arrivalPos="random" arrivalSpeed="0.00" depart="793.20" departPos="random" departSpeed="0.00" id="randUni359:1" type="passenger1">
        <route edges="--32750#8 --32750#7 --32818#2 --32818#1 --32818#0 --30770#3 --30770#2 --30770#1"/>
    </vehicle>
    <vehicle arrivalPos="random" arrivalSpeed="0.00" depart="840.32" departPos="random" departSpeed="0.00" id="randUni13004:1" type="passenger2a">
        <route edges="-31496#9 -31496#10 -31496#11 -31496#12 -31496#13 -31496#14 -32750#0 -32750#1 -32750#2 -32750#3 -32750#4 -32750#5 -32750#6 -32750#7 -32750#8"/>
    </vehicle>
    <vehicle arrivalPos="random" arrivalSpeed="0.00" depart="843.15" departPos="random" departSpeed="0.00" id="randUni8362:1" type="passenger2b">
        <route edges="--30418#1 --30262#1 --30262#0 -32924#13 -32924#14 --32750#3 --32750#2 --32750#1 --32750#0 --31496#14 --31496#13 --31496#12 --31496#11 --31496#10 --31496#9"/>
    </vehicle>
    <vehicle arrivalPos="random" arrivalSpeed="0.00" depart="844.95" departPos="random" departSpeed="0.00" id="randUni20041:1" type="passenger1">
        <route edges="-32924#10 -32924#11 -32924#12 -32924#13 -32924#14 --32750#3 --32750#2 --32750#1 --32750#0 --31496#14 --31496#13 --31496#12 --31496#11 --31496#10 --31496#9"/>
    </vehicle>
    <vehicle arrivalPos="random" arrivalSpeed="0.00" depart="847.41" departPos="random" departSpeed="0.00" id="randUni5421:1" type="passenger2b">
        <route edges="-31496#9 -31496#10 -31496#11 -31496#12 -31496#13 -31496#14 -32750#0 -32750#1 -32750#2 -32750#3 --32924#14 --32924#13 --32924#12 --32924#11 --32924#10"/>
    </vehicle>
    <vehicle arrivalPos="random" arrivalSpeed="0.00" depart="862.00" departPos="random" departSpeed="0.00" id="randUni7419:1" type="passenger1">
        <route edges="--31744#3 -30846#2 -30872#2 -30872#3 -32750#2 -32750#3 --32924#14 --32924#13 --32924#12 --32924#11 --32924#10"/>
    </vehicle>
    <vehicle arrivalPos="random" arrivalSpeed="0.00" depart="900.52" departPos="random" departSpeed="0.00" id="randUni16430:1" type="passenger1">
        <route edges="-31496#9 -31496#10 -31496#11 -31496#12 -31496#13 -31496#14 -32750#0 -32750#1 -30872#4 -30872#5 -30872#6 -30872#7 -30872#8"/>
    </vehicle>
    <vehicle arrivalPos="random" arrivalSpeed="0.00" depart="938.26" departPos="random" departSpeed="0.00" id="randUni19588:1" type="passenger1">
        <route edges="-32924#10 -32924#11"/>
    </vehicle>
    <vehicle arrivalPos="random" arrivalSpeed="0.00" depart="989.03" departPos="random" departSpeed="0.00" id="randUni15016:1" type="passenger2b">
        <route edges="-32924#10 -32924#11 -32924#12 -32924#13 -32924#14 --32750#3 --32750#2 --32750#1 --32750#0 --31496#14 --31496#13 --31496#12 --31496#11 --31496#10 --31496#9"/>
    </vehicle>
    <vehicle arrivalPos="random" arrivalSpeed="0.00" depart="1085.50" departPos="random" departSpeed="0.00" id="randUni1291:1" type="passenger4">
        <route edges="-31496#9 -31496#10 -31496#11 -31496#12 -31496#13 -31496#14 -32750#0 -32750#1 -32750#2 -32750#3 -32750#4 -32750#5 -32750#6 -32750#7 -32750#8"/>
    </vehicle>
    <vehicle arrivalPos="random" arrivalSpeed="0.00" depart="1214.04" departPos="random" departSpeed="0.00" id="randUni17996:1" type="passenger2b">
        <route edges="-31496#9 -31496#10 -31496#11 -31496#12 -31496#13 -31496#14 -32750#0 -32750#1 -32750#2 -32750#3 --32924#14 --32924#13 --32924#12 --32924#11 --32924#10"/>
    </vehicle>
    <vehicle arrivalPos="random" arrivalSpeed="0.00" depart="1234.00" departPos="random" departSpeed="0.00" id="randUni9974:1" type="passenger2b">
        <route edges="--32924#10"/>
    </vehicle>
    <vehicle arrivalPos="random" arrivalSpeed="0.00" depart="1254.00" departPos="random" departSpeed="0.00" id="randUni3471:1" type="passenger5">
        <route edges="--32776#10 --32776#9 -31496#10 -31496#11 -31496#12 -31496#13 -31496#14 -32750#0 -32750#1 -32750#2 -32750#3 -32750#4 -32750#5 -32750#6 -32750#7 -32750#8"/>
    </vehicle>
    <vehicle arrivalPos="random" arrivalSpeed="0.00" depart="1282.31" departPos="random" departSpeed="0.00" id="randUni7689:1" type="passenger2b">
        <route edges="--32750#8 --32750#7 --32750#6 --32750#5 --32750#4 --32750#3 --32750#2 --32750#1 --32750#0 --31962#4 --31962#3 -30684#0"/>
    </vehicle>
    <vehicle arrivalPos="random" arrivalSpeed="0.00" depart="1320.77" departPos="random" departSpeed="0.00" id="randUni14211:1" type="passenger2a">
        <route edges="--32750#8 --32750#7 --32750#6 --32750#5 --32750#4 --32750#3 --32750#2 --32750#1 --32750#0 --31962#4 --31962#3 --31962#2 --31962#1"/>
    </vehicle>
    <vehicle arrivalPos="random" arrivalSpeed="0.00" depart="1327.00" departPos="random" departSpeed="0.00" id="randUni19097:1" type="passenger1">
        <route edges="--31458#2 --31458#1 --31458#0 -31496#12 -31496#13 -31496#14 -32750#0 -32750#1 -32750#2 -32750#3 -32750#4 -32750#5 -32750#6 -32750#7 -32750#8"/>
    </vehicle>
    <vehicle arrivalPos="random" arrivalSpeed="0.00" depart="1348.25" departPos="random" departSpeed="0.00" id="randUni2738:1" type="passenger5">
        <route edges="-32924#10 -32924#11 -32924#12 -32924#13 -32924#14 --32750#3 --32750#2 --32750#1 --31744#3 --31744#2 --31744#1 --31718#3"/>
    </vehicle>
    <vehicle arrivalPos="random" arrivalSpeed="0.00" depart="1367.91" departPos="random" departSpeed="0.00" id="randUni20642:1" type="passenger1">
        <route edges="-32644#2 --31610#1"/>
    </vehicle>
    <vehicle arrivalPos="random" arrivalSpeed="0.00" depart="1427.00" departPos="random" departSpeed="0.00" id="randUni8280:1" type="passenger2a">
        <route edges="--32750#3 --32750#2 --32750#1 --32750#0 --31496#14 --31496#13 --31496#12 --31496#11 --31496#10 --31496#9"/>
    </vehicle>
    <vehicle arrivalPos="random" arrivalSpeed="0.00" depart="1448.24" departPos="random" departSpeed="0.00" id="randUni8694:1" type="passenger2a">
        <route edges="-31496#9 -31496#10 -31496#11 -31496#12 -31496#13 -31496#14 -32750#0 -32750#1 -32750#2 -32750#3 -32750#4 -32750#5 -32750#6 -32750#7 -32750#8"/>
    </vehicle>
    <vehicle arrivalPos="random" arrivalSpeed="0.00" depart="1462.00" departPos="random" departSpeed="0.00" id="randUni17833:1" type="passenger2a">
        <route edges="--32976 --31342#0 -31496#11 -31496#12 -31496#13 -31496#14 -32750#0 -32750#1 -32750#2 -32750#3 --32924#14 --32924#13 --32924#12 --32924#11 --32924#10"/>
    </vehicle>
    <vehicle arrivalPos="random" arrivalSpeed="0.00" depart="1554.03" departPos="random" departSpeed="0.00" id="randUni11209:1" type="passenger2b">
        <route edges="-32924#10 -32924#11 -32924#12 -32924#13 -32924#14 --32750#3 --32750#2 --32750#1 --32750#0 --31496#14 --31496#13 --31496#12 --31496#11 --31496#10 -32776#9"/>
    </vehicle>
    <vehicle arrivalPos="random" arrivalSpeed="0.00" depart="1557.88" departPos="random" departSpeed="0.00" id="randUni14459:1" type="passenger5">
        <route edges="--30684#0 -31962#3 -31962#4 -32750#0 -32750#1 -32750#2 -32750#3 -32750#4 -32750#5 -32750#6 -32750#7 -32750#8"/>
    </vehicle>
    <vehicle arrivalPos="random" arrivalSpeed="0.00" depart="1594.59" departPos="random" departSpeed="0.00" id="randUni12109:1" type="passenger4">
        <route edges="--31342#2 --31342#1 --31342#0 -31496#11 -31496#12 -31496#13 -31496#14 -32750#0 -32750#1 -32750#2 -32750#3 --32924#14 --32924#13 --32924#12 --32924#11 --32924#10"/>
    </vehicle>
    <vehicle arrivalPos="random" arrivalSpeed="0.00" depart="1616.76" departPos="random" departSpeed="0.00" id="randUni19911:1" type="passenger1">
        <route edges="-31496#9 -31496#10 -31496#11 -31496#12 -32366#0 --30886#0 --32256 -31784#1"/>
    </vehicle>
    <vehicle arrivalPos="random" arrivalSpeed="0.00" depart="1670.50" departPos="random" departSpeed="0.00" id="randUni2417:1" type="passenger1">
        <route edges="--32750#8 --32750#7 --32750#6 --32750#5 --32750#4 --32750#3 --32750#2 --32750#1 --32750#0 --31496#14 --31496#13 --31496#12 --31496#11 --31496#10 --31496#9"/>
    </vehicle>
    <vehicle arrivalPos="random" arrivalSpeed="0.00" depart="1723.94" departPos="random" departSpeed="0.00" id="randUni5897:1" type="passenger2a">
        <route edges="-31496#9 -31496#10 -31496#11 -31496#12 -31496#13 -31496#14 -32750#0 -32750#1 -32750#2 -32750#3 -32750#4 -32750#5 -32750#6 -32750#7 -32750#8"/>
    </vehicle>
    <vehicle arrivalPos="random" arrivalSpeed="0.00" depart="1729.03" departPos="random" departSpeed="0.00" id="randUni11061:1" type="passenger4">
        <route edges="-32924#10 -32924#11 -32924#12 -32924#13 -32924#14 --32750#3 --32750#2 --32750#1"/>
    </vehicle>
    <vehicle arrivalPos="random" arrivalSpeed="0.00" depart="1848.68" departPos="random" departSpeed="0.00" id="randUni66:1" type="passenger1">
        <route edges="-31496#9 -31496#10 -31496#11 -31496#12 -31496#13 -31496#14 -32750#0 -32750#1 -32750#2 -32750#3 --32924#14 --32924#13 --32924#12 --32924#11 --32924#10"/>
    </vehicle>
    <vehicle arrivalPos="random" arrivalSpeed="0.00" depart="2015.39" departPos="random" departSpeed="0.00" id="randUni13338:1" type="passenger2a">
        <route edges="-31496#9 -31496#10 -31496#11 -31496#12 -31496#13 -31496#14 -32750#0 -32750#1 -32750#2 -32750#3 -32750#4 -32750#5 -32750#6 -32750#7 -32750#8"/>
    </vehicle>
    <vehicle arrivalPos="random" arrivalSpeed="0.00" depart="2035.24" departPos="random" departSpeed="0.00" id="randUni3136:1" type="passenger2b">
        <route edges="-31496#9 -31496#10 -31496#11 -31496#12 -31496#13 -31496#14 -32750#0 -32750#1 -32750#2 -32750#3 --32924#14 --32924#13 --32924#12 --32924#11 --32924#10"/>
    </vehicle>
    <vehicle arrivalPos="random" arrivalSpeed="0.00" depart="2042.80" departPos="random" departSpeed="0.00" id="randUni11963:1" type="passenger2b">
        <route edges="--32750#8 --32750#7 --32750#6 --32750#5 --32750#4 --32750#3 --32750#2 --32750#1 --32750#0 --31962#4 -30886#0"/>
    </vehicle>
    <vehicle arrivalPos="random" arrivalSpeed="0.00" depart="2054.00" departPos="random" departSpeed="0.00" id="randUni12300:1" type="passenger2a">
        <route edges="--30872#5 --30872#4 -32750#2 -32750#3 -32750#4 -32750#5 -30300#0"/>
    </vehicle>
    <vehicle arrivalPos="random" arrivalSpeed="0.00" depart="2071.74" departPos="random" departSpeed="0.00" id="randUni7290:1" type="passenger2a">
        <route edges="-31496#9 -31496#10 -31496#11 -31496#12 -31496#13 -31496#14 -32750#0 -32750#1 -32750#2 -32750#3 --32924#14 --32924#13 --32924#12 --32924#11 --32924#10"/>
    </vehicle>
    <vehicle arrivalPos="random" arrivalSpeed="0.00" depart="2149.62" departPos="random" departSpeed="0.00" id="randUni12937:1" type="passenger2b">
        <route edges="-31610#0 -31610#1 -31610#2 -31610#3 --31204#2"/>
    </vehicle>
    <vehicle arrivalPos="random" arrivalSpeed="0.00" depart="2165.28" departPos="random" departSpeed="0.00" id="randUni2316:1" type="passenger3">
        <route edges="-31496#9 -31496#10 -31496#11 -31496#12 -31496#13 -31496#14 -30362#0 -30362#1 -30742#1 -30742#2"/>
    </vehicle>
    <vehicle arrivalPos="random" arrivalSpeed="0.00" depart="2170.59" departPos="random" departSpeed="0.00" id="randUni11187:1" type="passenger5">
        <route edges="-31496#9 -31496#10 -31496#11 -31458#0 -31616 --31748#2 --30370#4"/>
    </vehicle>
    <vehicle arrivalPos="random" arrivalSpeed="0.00" depart="2171.80" departPos="random" departSpeed="0.00" id="randUni16068:1" type="passenger1">
        <route edges="--32750#8 --32750#7 --32750#6 --32750#5 --32750#4 --32750#3 --32750#2 --32750#1 --32750#0 --31496#14 --31496#13 --31496#12 --31496#11 --31496#10 --31496#9"/>
    </vehicle>
    <vehicle arrivalPos="random" arrivalSpeed="0.00" depart="2185.10" departPos="random" departSpeed="0.00" id="randUni6244:1" type="passenger1">
        <route edges="-31496#9 -31496#10 -31496#11 -31496#12 -31496#13 -31496#14 -32750#0 -32750#1 -30872#4 -30872#5 -30872#6 -30872#7 -30872#8"/>
    </vehicle>
    <vehicle arrivalPos="random" arrivalSpeed="0.00" depart="2264.46" departPos="random" departSpeed="0.00" id="randUni10553:1" type="passenger2a">
        <route edges="--32750#8 --32750#7 --32750#6 --32750#5 --32750#4 --32750#3 --32750#2 --32750#1 --32750#0 --31496#14 --31496#13 --31496#12 --31496#11 --31496#10 --31496#9"/>
    </vehicle>
    <vehicle arrivalPos="random" arrivalSpeed="0.00" depart="2276.99" departPos="random" departSpeed="0.00" id="randUni7754:1" type="passenger2a">
        <route edges="-32924#10 -32924#11 -32924#12 -32924#13 -32924#14 --32750#3 --32750#2 --32750#1 --32750#0 --31496#14 --31496#13 --31496#12 --31496#11 --31496#10 -32776#9 -32776#10"/>
    </vehicle>
    <vehicle arrivalPos="random" arrivalSpeed="0.00" depart="2321.45" departPos="random" departSpeed="0.00" id="randUni10899:1" type="passenger1">
        <route edges="--32750#8 --32750#7 --32750#6 --32750#5 --32750#4 --32750#3 --32750#2 --32750#1 --32750#0 --31496#14 --31496#13 --31496#12 --31496#11 --31496#10 -32776#9 --31706#2"/>
    </vehicle>
    <vehicle arrivalPos="random" arrivalSpeed="0.00" depart="2368.07" departPos="random" departSpeed="0.00" id="randUni20335:1" type="passenger2a">
        <route edges="-31496#9 -31496#10 -31496#11 -31496#12 -31496#13 -31496#14 -32750#0 -32750#1 -32750#2 -32750#3 -32750#4 -32750#5 -32750#6 -32750#7 -32750#8"/>
    </vehicle>
    <vehicle arrivalPos="random" arrivalSpeed="0.00" depart="2382.68" departPos="random" departSpeed="0.00" id="randUni7468:1" type="passenger5">
        <route edges="-31496#9 -31496#10 -31496#11 -31496#12 -31496#13 -31496#14 -32750#0 -32750#1 -30872#4 -30872#5 -30872#6"/>
    </vehicle>
    <vehicle arrivalPos="random" arrivalSpeed="0.00" depart="2386.08" departPos="random" departSpeed="0.00" id="randUni19163:1" type="passenger2a">
        <route edges="--32750#8 --32750#7 --32750#6 --32750#5 --32750#4 --32750#3 --32750#2 --32750#1 --32750#0 --31496#14 --31496#13 --31496#12 --31496#11 --31496#10 --31496#9"/>
    </vehicle>
    <vehicle arrivalPos="random" arrivalSpeed="0.00" depart="2448.91" departPos="random" departSpeed="0.00" id="randUni4286:1" type="passenger4">
        <route edges="-31496#9 -31496#10 -31496#11 -31496#12 -31496#13 -31496#14 -32750#0 -32750#1 -32750#2 -32750#3 -32750#4 -32750#5 -32750#6 -32750#7 -32750#8"/>
    </vehicle>
    <vehicle arrivalPos="random" arrivalSpeed="0.00" depart="2484.91" departPos="random" departSpeed="0.00" id="randUni1507:1" type="passenger2a">
        <route edges="--32750#8 --32750#7 --32750#6 --32750#5 --32750#4 --32750#3 --32750#2 --32750#1 -31744#4 --32598#0 -31784#3"/>
    </vehicle>
    <vehicle arrivalPos="random" arrivalSpeed="0.00" depart="2497.29" departPos="random" departSpeed="0.00" id="randUni18272:1" type="passenger1">
        <route edges="--32750#8 --32750#7 --32750#6 --32750#5 --32750#4"/>
    </vehicle>
    <vehicle arrivalPos="random" arrivalSpeed="0.00" depart="2501.62" departPos="random" departSpeed="0.00" id="randUni6332:1" type="passenger1">
        <route edges="-32924#10 -32924#11 -32924#12 -32924#13 -32924#14 --32750#3 --32750#2 --32750#1 --32750#0 --31496#14 --31496#13 --31496#12 --31496#11 -31342#0 -31342#1 -31706#1"/>
    </vehicle>
    <vehicle arrivalPos="random" arrivalSpeed="0.00" depart="2512.00" departPos="random" departSpeed="0.00" id="randUni17564:1" type="passenger2a">
        <route edges="--31522#0 -31992#3 -31744#0 -31744#1 -31744#2 -31744#3 -32750#1 -32750#2 -32750#3 -32750#4 -32750#5 -32750#6 -32750#7 -32750#8"/>
    </vehicle>
    <vehicle arrivalPos="random" arrivalSpeed="0.00" depart="2516.24" departPos="random" departSpeed="0.00" id="randUni18584:1" type="passenger1">
        <route edges="--32750#8 --32750#7 --32750#6 --32750#5 --32750#4 --32750#3 --32750#2 --32750#1 --32750#0 --31496#14 --31496#13 --31496#12 --31496#11 --31496#10 --31496#9"/>
    </vehicle>
    <vehicle arrivalPos="random" arrivalSpeed="0.00" depart="2524.19" departPos="random" departSpeed="0.00" id="randUni18443:1" type="passenger2b">
        <route edges="-31496#9 -31496#10 -31496#11 -31496#12 -31496#13 -31496#14 -32750#0 -32750#1 -32750#2 -32750#3 --32924#14 --32924#13 --32924#12 --32924#11 --32924#10"/>
    </vehicle>
    <vehicle arrivalPos="random" arrivalSpeed="0.00" depart="2531.68" departPos="random" departSpeed="0.00" id="randUni5892:1" type="passenger2b">
        <route edges="-31496#9 -31496#10 -31496#11 -31496#12 -31496#13 -31496#14 -32750#0 -32750#1 -32750#2 -32750#3 -32750#4 -32750#5 -32750#6 -32750#7 -32750#8"/>
    </vehicle>
    <vehicle arrivalPos="random" arrivalSpeed="0.00" depart="2539.75" departPos="random" departSpeed="0.00" id="randUni2811:1" type="passenger1">
        <route edges="--32750#8 --32750#7 --32750#6 --32750#5 --32750#4 --32750#3 --32750#2 --32750#1 --32750#0 --31496#14 --31496#13 --31496#12 --31496#11 --31496#10 --31496#9"/>
    </vehicle>
    <vehicle arrivalPos="random" arrivalSpeed="0.00" depart="2543.00" departPos="random" departSpeed="0.00" id="randUni8296:1" type="passenger1">
        <route edges="-32028#1 -32028#2 -32028#3"/>
    </vehicle>
    <vehicle arrivalPos="random" arrivalSpeed="0.00" depart="2563.00" departPos="random" departSpeed="0.00" id="randUni15229:1" type="passenger3">
        <route edges="--31240#1 -31970 -32750#3 -32750#4 -32750#5 -32750#6 -32750#7 -32750#8"/>
    </vehicle>
    <vehicle arrivalPos="random" arrivalSpeed="0.00" depart="2623.44" departPos="random" departSpeed="0.00" id="randUni11924:1" type="passenger1">
        <route edges="--32750#8 --32750#7 --32750#6 --32750#5 --32750#4 --32750#3 --32750#2 --32750#1 --31744#3 --31744#2 --31744#1 --31744#0 --31992#3 --31992#2 --31992#1 -32752#0"/>
    </vehicle>
    <vehicle arrivalPos="random" arrivalSpeed="0.00" depart="2653.92" departPos="random" departSpeed="0.00" id="randUni1975:1" type="passenger3">
        <route edges="--32750#8 --32750#7 --32750#6 --32750#5 --32750#4 --32750#3 --32750#2 --32750#1 --32750#0 --31496#14 --31496#13 --31496#12 --31496#11 --31496#10 --31496#9"/>
    </vehicle>
    <vehicle arrivalPos="random" arrivalSpeed="0.00" depart="2667.36" departPos="random" departSpeed="0.00" id="randUni6542:1" type="passenger1">
        <route edges="-31610#0 -31610#1 -31610#2"/>
    </vehicle>
    <vehicle arrivalPos="random" arrivalSpeed="0.00" depart="2684.38" departPos="random" departSpeed="0.00" id="randUni2254:1" type="passenger1">
        <route edges="--32750#8 --32750#7 --32750#6 --32750#5 --32750#4 --32750#3 --32750#2 --32750#1 --32750#0 --31496#14 --31496#13 --31496#12 --31496#11 --31496#10 --31496#9"/>
    </vehicle>
    <vehicle arrivalPos="random" arrivalSpeed="0.00" depart="2687.78" departPos="random" departSpeed="0.00" id="randUni14185:1" type="passenger4">
        <route edges="-31496#9 -31496#10 -31496#11 -31496#12 -31496#13 -31496#14 -32750#0 -32750#1 -32750#2 -32750#3 --32924#14 --32924#13 --32924#12 --32924#11 --32924#10"/>
    </vehicle>
    <vehicle arrivalPos="random" arrivalSpeed="0.00" depart="2717.12" departPos="random" departSpeed="0.00" id="randUni9828:1" type="passenger1">
        <route edges="-31496#9 -31496#10 -31496#11 -31496#12 -31496#13 -31496#14 -32750#0 -32750#1 -32750#2 -32750#3 -32750#4 -32750#5 -32750#6 -32750#7 -32750#8"/>
    </vehicle>
    <vehicle arrivalPos="random" arrivalSpeed="0.00" depart="2722.59" departPos="random" departSpeed="0.00" id="randUni660:1" type="passenger2a">
        <route edges="-31496#9 -31496#10 -31496#11 -31496#12 -31496#13 -31496#14 -32750#0 -32750#1 -32750#2 -32750#3 --32924#14 --32924#13 --32924#12 --32924#11 --32924#10"/>
    </vehicle>
    <vehicle arrivalPos="random" arrivalSpeed="0.00" depart="2774.00" departPos="random" departSpeed="0.00" id="randUni5021:1" type="passenger2b">
        <route edges="--31204#3 --31610#3 --31610#2 --31610#1 --31610#0"/>
    </vehicle>
    <vehicle arrivalPos="random" arrivalSpeed="0.00" depart="2776.76" departPos="random" departSpeed="0.00" id="randUni2938:1" type="passenger2b">
        <route edges="-32924#10 -32924#11 -32924#12 -32924#13 -32924#14 --32750#3 --32750#2 --32750#1 --32750#0 --31496#14 --31496#13 --31496#12 --31496#11 --31496#10 --31496#9"/>
    </vehicle>
    <vehicle arrivalPos="random" arrivalSpeed="0.00" depart="2848.08" departPos="random" departSpeed="0.00" id="randUni17192:1" type="passenger1">
        <route edges="--31878#0 -30872#0 -30872#1 -30872#2 -30872#3 -32750#2 -32750#3 -32750#4 -32750#5 -32750#6 -32750#7 -32750#8"/>
    </vehicle>
    <vehicle arrivalPos="random" arrivalSpeed="0.00" depart="2875.49" departPos="random" departSpeed="0.00" id="randUni1025:1" type="passenger1">
        <route edges="-32924#10 -32924#11 -32924#12 -32924#13 -32924#14 --32750#3 --32750#2 --32750#1 --32750#0 --31496#14 --31496#13 --31496#12 --31496#11 --31496#10 --31496#9"/>
    </vehicle>
    <vehicle arrivalPos="random" arrivalSpeed="0.00" depart="2896.90" departPos="random" departSpeed="0.00" id="randUni13329:1" type="passenger1">
        <route edges="-31496#9 -31496#10 -31496#11 -31496#12 -31496#13 -31496#14 -32750#0 -32750#1 -32750#2 -32750#3 --32924#14 --32924#13 --32924#12 --32924#11 --32924#10"/>
    </vehicle>
    <vehicle arrivalPos="random" arrivalSpeed="0.00" depart="2935.43" departPos="random" departSpeed="0.00" id="randUni14859:1" type="passenger1">
        <route edges="-32924#10 -32924#11 -32924#12 -32924#13 -32924#14 --32750#3 --32750#2 --32750#1 --31744#3 --31744#2 --31744#1 -31718#4 --31652#2"/>
    </vehicle>
    <vehicle arrivalPos="random" arrivalSpeed="0.00" depart="2995.13" departPos="random" departSpeed="0.00" id="randUni14638:1" type="passenger2a">
        <route edges="-31496#9 -31496#10 -31496#11 -31496#12 -31496#13 -31496#14 -32750#0 -32750#1 -32750#2 -32750#3 -32750#4 -32750#5 -32750#6 -32750#7 -32750#8"/>
    </vehicle>
    <vehicle arrivalPos="random" arrivalSpeed="0.00" depart="2999.91" departPos="random" departSpeed="0.00" id="randUni15944:1" type="passenger1">
        <route edges="-32924#10 -32924#11 -32924#12 -32924#13 -32924#14 --32750#3 --32750#2 --32750#1 -31744#4 -32598#1"/>
    </vehicle>
    <vehicle arrivalPos="random" arrivalSpeed="0.00" depart="3018.34" departPos="random" departSpeed="0.00" id="randUni7088:1" type="passenger2a">
        <route edges="-31496#9 -31496#10 -31496#11 -31496#12 -31496#13 -31496#14 -32750#0 -32750#1 -32750#2 -32750#3 --32924#14 --32924#13 --32924#12 --32924#11 --32924#10"/>
    </vehicle>
    <vehicle arrivalPos="random" arrivalSpeed="0.00" depart="3107.00" departPos="random" departSpeed="0.00" id="randUni9115:1" type="passenger2b">
        <route edges="-32598#0 --31744#4 -32750#1 -32750#2 -32750#3 -32750#4 -32750#5 -32750#6 -32750#7 -32750#8"/>
    </vehicle>
    <vehicle arrivalPos="random" arrivalSpeed="0.00" depart="3153.00" departPos="random" departSpeed="0.00" id="randUni4414:1" type="passenger1">
        <route edges="--30872#6 --30872#5 --30872#4 -32750#2 -32750#3 -32750#4 -32750#5 -32750#6 -32750#7 -32750#8"/>
    </vehicle>
    <vehicle arrivalPos="random" arrivalSpeed="0.00" depart="3154.97" departPos="random" departSpeed="0.00" id="randUni2426:1" type="passenger1">
        <route edges="-31496#9 -31496#10 -31496#11 -31496#12 -31496#13 -31496#14 -32750#0 -32750#1 -32750#2 -32750#3 -32750#4 -32750#5 -32750#6 -32750#7 -32750#8"/>
    </vehicle>
    <vehicle arrivalPos="random" arrivalSpeed="0.00" depart="3174.69" departPos="random" departSpeed="0.00" id="randUni7170:1" type="passenger2a">
        <route edges="-31496#9 -31496#10 -31496#11 -31496#12 -31496#13 -31496#14 -32750#0 -32750#1 -32750#2 -32750#3 --32924#14 --32924#13 --32924#12 --32924#11 --32924#10"/>
    </vehicle>
    <vehicle arrivalPos="random" arrivalSpeed="0.00" depart="3174.93" departPos="random" departSpeed="0.00" id="randUni7696:1" type="passenger1">
        <route edges="-31784#0 -31784#1 -31784#2 -32598#0 -32598#1"/>
    </vehicle>
    <vehicle arrivalPos="random" arrivalSpeed="0.00" depart="3199.11" departPos="random" departSpeed="0.00" id="randUni11335:1" type="passenger5">
        <route edges="-31496#9 -31496#10 -31496#11 -31496#12 -31496#13 -31496#14 -32750#0 -32750#1 -32750#2 -32750#3 -32750#4 -32750#5 -32750#6 -32750#7 -32750#8"/>
    </vehicle>
    <vehicle arrivalPos="random" arrivalSpeed="0.00" depart="3209.89" departPos="random" departSpeed="0.00" id="randUni15363:1" type="passenger2a">