<?xml version="1.0"?>
<routes xmlns:xsi="http://www.w3.org/2001/XMLSchema-instance" xsi:nonamespaceschemalocation="http://sumo.sf.net/xsd/routes_file.xsd">
	<vehicle depart="0.00" id="t0">
		<route edges="6/0to5/0 5/0to4/0 4/0to3/0 3/0to2/0 2/0to1/0 1/0to1/1 1/1to0/1 0/1to0/2 0/2to0/3 0/3to0/4 0/4to0/5 0/5to0/6 0/6to1/6">
		</route>
	</vehicle>
	<vehicle depart="0.00" id="t1">
		<route edges="0/4to0/5 0/5to1/5 1/5to1/4 1/4to1/3 1/3to1/2 1/2to2/2 2/2to3/2 3/2to4/2 4/2to5/2 5/2to6/2 6/2to6/3">
		</route>
	</vehicle>
	<vehicle depart="0.00" id="t2">
		<route edges="5/9to6/9 6/9to6/8 6/8to7/8 7/8to8/8 8/8to8/9">
		</route>
	</vehicle>
	<vehicle depart="0.00" id="t3">
		<route edges="8/8to8/9 8/9to7/9 7/9to6/9 6/9to6/8 6/8to5/8 5/8to5/9">
		</route>
	</vehicle>
	<vehicle depart="0.00" id="t4">
		<route edges="2/9to2/8 2/8to2/7 2/7to2/6 2/6to2/5 2/5to3/5 3/5to4/5 4/5to4/4">
		</route>
	</vehicle>
	<vehicle depart="0.00" id="t5">
		<route edges="1/2to0/2 0/2to0/1 0/1to1/1 1/1to1/0 1/0to2/0 2/0to3/0 3/0to4/0 4/0to5/0 5/0to6/0 6/0to7/0 7/0to8/0 8/0to8/1 8/1to7/1">
		</route>
	</vehicle>
	<vehicle depart="0.00" id="t6">
		<route edges="5/0to6/0 6/0to6/1 6/1to5/1 5/1to5/0 5/0to4/0 4/0to4/1 4/1to5/1">
		</route>
	</vehicle>
	<vehicle depart="0.00" id="t7">
		<route edges="9/1to9/2 9/2to8/2 8/2to7/2 7/2to6/2 6/2to5/2 5/2to5/3 5/3to5/4 5/4to4/4 4/4to4/3">
		</route>
	</vehicle>
	<vehicle depart="0.00" id="t8">
		<route edges="3/8to2/8 2/8to2/7 2/7to2/6 2/6to3/6 3/6to4/6 4/6to4/5">
		</route>
	</vehicle>
	<vehicle depart="0.00" id="t9">
		<route edges="2/6to2/7 2/7to1/7 1/7to1/6 1/6to1/5 1/5to1/4 1/4to1/3 1/3to2/3 2/3to3/3 3/3to3/4">
		</route>
	</vehicle>
</routes>
